
 + + + + + + + + + + + + + + + + + + + + + + + + + + + + + + + + + + + + + + + +
 + + + + + + + + + + + + + + + + + + + + + + + + + + + + + + + + + + + + + + + +
 + +                                                                         + +
 + +                      ASPEN PLUS CALCULATION HISTORY                     + +
 + +                                                                         + +
 + + + + + + + + + + + + + + + + + + + + + + + + + + + + + + + + + + + + + + + +
 + + + + + + + + + + + + + + + + + + + + + + + + + + + + + + + + + + + + + + + +

 ASPEN PLUS IS A TRADEMARK OF           HOTLINE:
 ASPEN TECHNOLOGY, INC.                 U.S.A. 888/996-7100
 781/221-6400                           EUROPE (44) 1189-226555

 PLATFORM: WIN-X64                                       OCTOBER 7, 2025     
 VERSION: 38.0   Build 380                               TUESDAY     
 INSTALLATION:                                           6:50:14 A.M.        

 THIS COPY OF ASPEN PLUS LICENSED TO INDIAN INSTITUTE OF TECH        


      ASPEN PLUS (R) IS A PROPRIETARY PRODUCT OF ASPEN TECHNOLOGY, INC.
      (ASPENTECH), AND MAY BE USED ONLY UNDER AGREEMENT WITH ASPENTECH.
      RESTRICTED RIGHTS LEGEND:  USE, REPRODUCTION, OR DISCLOSURE BY THE
      U.S. GOVERNMENT IS SUBJECT TO RESTRICTIONS SET FORTH IN 
      (i) FAR 52.227-14, Alt. III, (ii) FAR 52.227-19, (iii) DFARS 
      252.227-7013(c)(1)(ii), or (iv) THE ACCOMPANYING LICENSE AGREEMENT,
      AS APPLICABLE. FOR PURPOSES OF THE FAR, THIS SOFTWARE SHALL BE DEEMED
      TO BE "UNPUBLISHED" AND LICENSED WITH DISCLOSURE PROHIBITIONS.
      CONTRACTOR/SUBCONTRACTOR: ASPEN TECHNOLOGY, INC. 20 CROSBY DRIVE,
      BEDFORD, MA 01730.
 *** INPUT SUMMARY ***

 >>CURRENT RUN

   ORIGINAL RUN                           OCTOBER 7, 2025     
   6:50:14 A.M.                           TUESDAY     
   INPUT FILE: _4940xxu.inm
   RUN ID : _4940xxu
          1    ;
          2    ;Input file created by Aspen Plus Rel. 38.0 at 06:50:14 Tue Oct 7, 2025
          3    ;Directory D:\Rajdeep EPEL\6_variable capacity\Final MATLAB files\Downstream unit 2  Runid DOWNSTREAM UNIT 2
          4    ;
          5
          6
          7    DYNAMICS
          8        DYNAMICS RESULTS=ON
          9
         10    IN-UNITS SI SHORT-LENGTH=mm
         11
         12    DEF-STREAMS CONVEN ALL
         13
         14    MODEL-OPTION
         15
         16    DATABANKS 'APV120 PURE38' / 'APV120 AQUEOUS' / 'APV120 SOLIDS' &
         17             / 'APV120 INORGANIC' / 'APESV120 AP-EOS' /  &
         18            'NISTV120 NIST-TRC' / NOASPENPCD
         19
         20    PROP-SOURCES 'APV120 PURE38' / 'APV120 AQUEOUS' /  &
         21            'APV120 SOLIDS' / 'APV120 INORGANIC' / 'APESV120 AP-EOS' &
         22             / 'NISTV120 NIST-TRC'
         23
         24    COMPONENTS
         25        WATER H2O /
         26        "NACL(S)" NACL /
         27        NACL NACL
         28
         29    CISOLID-COMPS "NACL(S)"
         30
         31    SOLVE
         32        RUN-MODE MODE=SIM
         33
         34    FLOWSHEET
         35        BLOCK MIX1 IN=BRINE RSEA OUT=HEX1F
         36        BLOCK FD IN=FF QLAMDA OUT=VF BF
         37        BLOCK MIX2 IN=BF S7 OUT=P1F
         38        BLOCK P1 IN=P1F OUT=HEX3F
         39        BLOCK CRYST IN=FC OUT=BC VC
         40        BLOCK B5 IN=VF VC OUT=VAP
         41        BLOCK FILTER IN=BC OUT=S7 SALT
         42        BLOCK HEX2 IN=VAP OUT=HEX1H QLAMDA
         43        BLOCK HEX1 IN=HEX1H HEX1F OUT=HEX3HIN FF
         44        BLOCK HEX3 IN=HEX3HIN HEX3F OUT=HEX3HOUT FC
         45        BLOCK HEX4 IN=HEX3HOUT OUT=P2F
         46        BLOCK P2 IN=P2F OUT=DIST
         47
         48    PROPERTIES ELECNRTL
         49        PROPERTIES ENRTL-RK
         50
         51    PROP-DATA HOCETA-1
         52        IN-UNITS MET PRESSURE=bar TEMPERATURE=C DELTA-T=C PDROP=bar  &
         53            INVERSE-PRES='1/bar' SHORT-LENGTH=mm
         54        PROP-LIST HOCETA
         55        BPVAL WATER WATER 1.700000000
         56
         57    STREAM BRINE
         58        SUBSTREAM MIXED TEMP=327.997 PRES=1.01325000E+5  &
         59            MASS-FLOW=386.985
         60        MASS-FRAC WATER 0.9124 / NACL 0.05426429653
         61
         62    STREAM RSEA
         63        SUBSTREAM MIXED TEMP=323.1500000 PRES=1.01325000E+5  &
         64            MASS-FLOW=353.62192716
         65        MASS-FRAC WATER 0.965 / NACL 0.035
         66
         67    DEF-STREAMS HEAT QLAMDA
         68
         69    BLOCK B5 MIXER
         70        PARAM PRES=66328.85159 NPHASE=1 PHASE=V
         71        BLOCK-OPTION FREE-WATER=NO
         72
         73    BLOCK MIX1 MIXER
         74        PARAM PRES=1. <atm>
         75
         76    BLOCK MIX2 MIXER
         77        PARAM PRES=50835.05119
         78
         79    BLOCK HEX2 HEATER
         80        PARAM PRES=66328.85159 DUTY=-1079428530. DPPARMOPT=NO
         81        UTILITY UTILITY-ID=WATER
         82
         83    BLOCK HEX4 HEATER
         84        PARAM TEMP=326. PRES=66328.85159 DPPARMOPT=NO
         85        UTILITY UTILITY-ID=WATER
         86
         87    BLOCK FD FLASH2
         88        PARAM PRES=0.47 <atm>
         89
         90    BLOCK HEX1 HEATX
         91        PARAM DUTY=71444679.1 CALC-TYPE=DESIGN U-OPTION=PHASE  &
         92            F-OPTION=CONSTANT CALC-METHOD=SHORTCUT
         93        FEEDS HOT=HEX1H COLD=HEX1F
         94        OUTLETS-HOT HEX3HIN
         95        OUTLETS-COLD FF
         96        HOT-SIDE DP-OPTION=CONSTANT DPPARMOPT=NO
         97        COLD-SIDE DP-OPTION=CONSTANT DPPARMOPT=NO
         98        TQ-PARAM CURVE=YES
         99
        100    BLOCK HEX3 HEATX
        101        PARAM INCR-COLD=4. CALC-TYPE=DESIGN U-OPTION=PHASE  &
        102            F-OPTION=CONSTANT CALC-METHOD=SHORTCUT
        103        FEEDS HOT=HEX3HIN COLD=HEX3F
        104        OUTLETS-HOT HEX3HOUT
        105        OUTLETS-COLD FC
        106        HOT-SIDE DP-OPTION=CONSTANT DPPARMOPT=NO
        107        COLD-SIDE DP-OPTION=CONSTANT DPPARMOPT=NO
        108        TQ-PARAM CURVE=YES
        109
        110    BLOCK P1 PUMP
        111        PARAM PRES=1.01 <atm>
        112
        113    BLOCK P2 PUMP
        114        PARAM PRES=101325.
        115
        116    BLOCK CRYST CRYSTALLIZER
        117        PARAM OPT-PSD=COPY PRES=1.01 <atm> SOLVENT-CID=WATER  &
        118            SOL-BASIS=SOLVENT MASS-VFLOW=245.5
        119        STOIC 1 MIXED NACL -1. / "NACL(S)" 1.
        120        SOLU-PROFILE SOLUB-TEMP=25. <C> SOLUB-RATIO=0.267
        121
        122    BLOCK FILTER FILTER
        123        PARAM TYPE=SOLIDS-SEP SOLID-SPLIT=0.9 SOLID-LOAD=0.5  &
        124            FLASH-MAXIT=30 FLASH-TOL=0.0001 TEMP=372. PRES=101325.
        125
        126    UTILITY ELECTRIC GENERAL
        127        DESCRIPTION 'Electrical Utility'
        128        COST ELEC-PRICE=0.049 <$/kWhr>
        129        PARAM UTILITY-TYPE=ELECTRICITY CALCCO2=YES FACTORSOURCE= &
        130            "US-EPA-Rule-E9-5711" FUELSOURCE="Natural_gas"  &
        131            CO2FACTOR=5.58900000E-8 EFFICIENCY=0.58
        132
        133    UTILITY WATER GENERAL
        134        DESCRIPTION 'Cooling Water, Inlet Temp=20 C, Outlet Temp=25 C'
        135        COST PRICE=0.03 <$/ton>
        136        PARAM UTILITY-TYPE=WATER PRES=1. <atm> PRES-OUT=1. <atm>  &
        137            TIN=31.5 <C> TOUT=60. <C> CALOPT=FLASH MIN-TAPP=1. <C>  &
        138            HTC=0.0135 <kW/sqm-K>
        139
        140    EO-CONV-OPTI
        141
        142    CONV-OPTIONS
        143        WEGSTEIN MAXIT=100
        144
        145    STREAM-REPOR MOLEFLOW
        146
        147    PROPERTY-REP PCES
        148    ;
        149    ;
        150    ;
        151    ;
        152    ;
 *** INPUT TRANSLATOR MESSAGES ***

  *** THIS RUN USES THE PROPERTIES ENTERPRISE DATABASE ***
      SQLLOCALDB.APESV120 : (DATAVERSION - 38.0.0.14)                         
      SQLLOCALDB.APV120 : (DATAVERSION - 38.0.0.20)                           
      SQLLOCALDB.FACTV120 : (DATAVERSION - 38.0.0.1)                          
      SQLLOCALDB.NISTV120 : (DATAVERSION - 38.0.0.12)                         

      INFORMATION IN PHYSICAL PROPERTY SYSTEM                  (STELBP.3)       
      THE PAIR PARAMETERS FOR ELECNRTL OPTION SET HAS BEEN RETRIEVED FROM       
      DATABANK ENRTL-RK.                                                        

      INFORMATION                                              (GTDATA.8)       
      PURE COMPONENT PARAMETERS FOR SOME COMPONENTS ARE RETRIEVED FROM          
      DATABANK.  THESE PARAMETERS ARE USED WITH THE ELECNRTL OPTION SET         
      UNLESS YOU ENTER YOUR OWN PARAMETERS IN PROP-DATA PARAGRAPHS.             
      PARAMETER THRSWT(ELEMENT/3) RETRIEVED FOR COMPONENT WATER                 
      PARAMETER PLXANT RETRIEVED FOR COMPONENT WATER                            

  *   WARNING IN THE "STREAM" PARAGRAPH WHICH BEGINS ON LINE 57                 
      STREAM NAME: BRINE                                       (SDSMPR.12)      
      COMPONENT MASS FRACTIONS ARE NORMALIZED TO UNITY.                         
 
 

 PDF updated                                                                      TIME =      0.88

  *   WARNING IN PHYSICAL PROPERTY SYSTEM WHILE INITIALIZING PROPERTY MODELS    
                                                               (GM05BB.1)       
      UNSYMMETRIC ELECTROLYTE NRTL MODEL GMENRTLQ HAS MISSING PARAMETERS:       
      Dielectric constant (CPDIEC) MISSING FOR NACL(S)  & OTHER COMPONENTS.     
      CPDIEC OF WATER WILL BE ASSUMED.                                          

 *** CALCULATION TRACE ***


 *** FLOWSHEET ANALYSIS MESSAGES ***

 FLOWSHEET CONNECTIVITY BY STREAMS       

   STREAM     SOURCE     DEST           STREAM     SOURCE     DEST
   RSEA       ----       MIX1           BRINE      ----       MIX1    
   HEX1F      MIX1       HEX1           VF         FD         B5      
   BF         FD         MIX2           P1F        MIX2       P1      
   HEX3F      P1         HEX3           BC         CRYST      FILTER  
   VC         CRYST      B5             VAP        B5         HEX2    
   S7         FILTER     MIX2           SALT       FILTER     ----    
   HEX1H      HEX2       HEX1           QLAMDA     HEX2       FD      
   HEX3HIN    HEX1       HEX3           FF         HEX1       FD      
   HEX3HOUT   HEX3       HEX4           FC         HEX3       CRYST   
   P2F        HEX4       P2             DIST       P2         ----    

 FLOWSHEET CONNECTIVITY BY BLOCKS        

   BLOCK        INLETS                         OUTLETS
   MIX1         BRINE RSEA                     HEX1F                       
   FD           FF QLAMDA                      VF BF                       
   MIX2         BF S7                          P1F                         
   P1           P1F                            HEX3F                       
   CRYST        FC                             BC VC                       
   B5           VF VC                          VAP                         
   FILTER       BC                             S7 SALT                     
   HEX2         VAP                            HEX1H QLAMDA                
   HEX1         HEX1H HEX1F                    HEX3HIN FF                  
   HEX3         HEX3HIN HEX3F                  HEX3HOUT FC                 
   HEX4         HEX3HOUT                       P2F                         
   P2           P2F                            DIST                        

      BLOCK $OLVER01 (METHOD: WEGSTEIN) HAS BEEN DEFINED TO CONVERGE
               STREAMS: VF        FC

      COMPUTATION ORDER FOR THE FLOWSHEET IS:
      WATER MIX1 
      $OLVER01 CRYST FILTER B5 HEX2 HEX1 FD MIX2 P1 HEX3 
      (RETURN $OLVER01) 
      HEX4 P2 ELECTRIC 

Calculations begin                                                              time      0.34


 SIMULATION CALCULATIONS BEGIN                                                    TIME =      0.34

      UTILITY BLOCK WATER    MODEL: GENERAL                                       TIME =      0.34
      KODE = 2  NTRIAL =   1  T = 304.6500  P =  101325.      V =  0.00000      Q =  0.00000    
      KODE = 3  NTRIAL =   4  T = 373.1407  P =  101325.      V =  0.00000      Q = 5.162169E+06
      KODE = 2  NTRIAL =   1  T = 333.1500  P =  101325.      V =  0.00000      Q =  0.00000    
      KODE = 3  NTRIAL =   4  T = 373.1407  P =  101325.      V =  0.00000      Q = 3.019160E+06
      HEATING/COOLING VALUE    -1.189551D+05 J/KG

      ENTHALPY CALCULATION FOR INLET STREAM BRINE OF BLOCK MIX1                   TIME =      0.34
      KODE = 2  NTRIAL =   3  T = 327.9970  P =  101325.      V =  0.00000      Q =  0.00000    

      ENTHALPY CALCULATION FOR INLET STREAM RSEA OF BLOCK MIX1                    TIME =      0.34
      KODE = 2  NTRIAL =   3  T = 323.1500  P =  101325.      V =  0.00000      Q =  0.00000    

      UOS BLOCK MIX1     MODEL: MIXER                                             TIME =      0.34
      NO. TEMP ITER =    4     TEMP =  325.660    
      KODE = 1  NTRIAL =   2  T = 325.6602  P =  101325.      V =  0.00000      Q =  0.00000    

      CONVERGENCE BLOCK $OLVER01  METHOD: WEGSTEIN                                TIME =      0.34
      ITER   0 For Tear Streams: VF        FC

      UOS BLOCK CRYST    MODEL: CRYSTALLIZER                                      TIME =      0.34

  *   WARNING WHILE EXECUTING UNIT OPERATIONS BLOCK: "CRYST" (MODEL:            
      "CRYSTALLIZER")                                          (UCR02I.1)       
      ZERO FEED TO THE BLOCK. BLOCK BYPASSED                                    

      UOS BLOCK FILTER   MODEL: FILTER                                            TIME =      0.34

      UOS BLOCK B5       MODEL: MIXER                                             TIME =      0.34

  *   WARNING WHILE EXECUTING UNIT OPERATIONS BLOCK: "B5" (MODEL: "MIXER")      
                                                               (UMX01I.1)       
      ZERO FEED TO BLOCK.                                                       

      UOS BLOCK HEX2     MODEL: HEATER                                            TIME =      0.34

  *   WARNING WHILE EXECUTING UNIT OPERATIONS BLOCK: "HEX2" (MODEL: "HEATER")   
                                                               (UHE01.4)        
      ZERO FEED TO THE BLOCK.  BLOCK BYPASSED                                   

      UOS BLOCK HEX1     MODEL: HEATX                                             TIME =      0.34

  *   WARNING WHILE EXECUTING UNIT OPERATIONS BLOCK: "HEX1" (MODEL: "HEATX")    
                                                               (UHE02I.1)       
      AT LEAST ONE FEED HAS ZERO FLOW                                           
      BLOCK BYPASSED                                                            

      UOS BLOCK FD       MODEL: FLASH2                                            TIME =      0.34
      NO. TEMP ITER =    4     TEMP =  325.671    
      KODE = 1  NTRIAL =   2  T = 325.6711  P =  47622.8      V =  0.00000      Q =  0.00000    

      UOS BLOCK MIX2     MODEL: MIXER                                             TIME =      0.34
      NO. TEMP ITER =    4     TEMP =  325.670    
      KODE = 1  NTRIAL =   2  T = 325.6705  P =  50835.1      V =  0.00000      Q =  0.00000    

      UOS BLOCK P1       MODEL: PUMP                                              TIME =      0.34
      VOL-FLOW   =  0.7364     , DELTA P    =  0.5150E+05 , PUMP EFF   =  0.8594    
      FLUID PWR  =  0.3793E+05 , BRAKE PWR  =  0.4413E+05 , ELEC PWR   =  0.4413E+05

      UOS BLOCK HEX3     MODEL: HEATX                                             TIME =      0.34

  *   WARNING WHILE EXECUTING UNIT OPERATIONS BLOCK: "HEX3" (MODEL: "HEATX")    
                                                               (UHE02I.1)       
      AT LEAST ONE FEED HAS ZERO FLOW                                           
      BLOCK BYPASSED                                                            

      CONVERGENCE BLOCK $OLVER01  METHOD: WEGSTEIN                                TIME =      0.34
      ITER   1 For Tear Streams: VF        FC

  *   WARNING WHILE EXECUTING CONVERGENCE BLOCK: "$OLVER01" (MODEL: "WEGSTEIN") 
                                                               (WEGSTN2.1)      
      THE VALUES FOR SOME VARIABLES ARE MISSING.                                
      THIS MAY BE CAUSED BY A ZERO-FLOW STREAM.                                 
      THE PREVIOUS VALUES OF THE VARIABLES WILL BE USED.                        
      THE MISSING VARIABLES ARE:                                                
      "5"                                                                       

      --FLASH TEAR STREAM FC      
      NO. TEMP ITER =    4     TEMP =  325.675    
      KODE = 1  NTRIAL =   2  T = 325.6748  P =  102338.      V =  0.00000      Q =  0.00000    

  LOOP $OLVER01 ITER    1:   3 VARS NOT CONVERGED, MAX ERR/TOL     0.10000E+07    TIME =      0.35

      UOS BLOCK CRYST    MODEL: CRYSTALLIZER                                      TIME =      0.36

  *   WARNING WHILE EXECUTING UNIT OPERATIONS BLOCK: "CRYST" (MODEL:            
      "CRYSTALLIZER")                                          (UCR02.32)       
      THE CRYSTAL PRODUCT FLOW RATE IS ZERO.                                    

      SPEC = PV    TEMP =   374.07      PRES =  0.10234E+06  DUTY =  0.70015E+09
      CRYSTAL PROD RATE =   0.0000      RECYCLED FLOW RATE =   0.0000    
      VENT FLOW =    245.50      MAGMA DEN =  0.10000E+36  RES TIME =  0.10000E+36

      UOS BLOCK FILTER   MODEL: FILTER                                            TIME =      0.36

  **  ERROR WHILE EXECUTING UNIT OPERATIONS BLOCK: "FILTER" (MODEL: "FILTER")   
                                                               (SOLSEP.4)       
      ZERO SOLID FLOW SPECIFIED IN FLUID OUTLET. SPECIFIED SOLID LOAD           
      OF FLUID OUTLET CANNOT BE MET. ALL FLUID SET TO FLUID OUTLET.             

      UOS BLOCK B5       MODEL: MIXER                                             TIME =      0.36
      KODE = 1   NO. TEMP ITER =    4     TEMP =  373.458    
      KPHASE =    1 KODE =    1 T =  373.458     P =  66328.9     Q =  0.00000    

      UOS BLOCK HEX2     MODEL: HEATER                                            TIME =      0.36
      NO. TEMP ITER =    3     TEMP =  97.0644    
      NO. TEMP ITER =    3     TEMP =  97.0644    
      KODE = 1  NTRIAL =   2  T =  97.0644  P =  66328.9      V =  0.00000      Q =  0.00000    

  *** SEVERE ERROR WHILE EXECUTING UNIT OPERATIONS BLOCK: "HEX2" (MODEL:        
      "HEATER")                                                (UHE01.3)        
      FLASH CALCULATION HAS DRIVEN THE TEMPERATURE DOWN TO THE LOWER LIMIT OF   
      97.0644  DEGREES K., BUT ENTHALPY BALANCE IS STILL NOT SATISFIED.  HEAT   
      DUTY SPECIFICATIONS MAY BE INFEASIBLE.                                    

  **  ERROR WHILE EXECUTING UNIT OPERATIONS BLOCK: "HEX2" (MODEL: "HEATER")     
                                                               (STUTRQ2.3)      
      TEMPERATURES CROSS WITH UTILITY WATER                                     
      IN HEATER       BLOCK HEX2                                                
      BLOCK TEMPERATURES       3.734582D+02 K AND     9.706440D+01 K            
      UTILITY TEMPERATURES     3.331500D+02 K AND     3.046500D+02 K            

      UOS BLOCK HEX1     MODEL: HEATX                                             TIME =      0.36

  **  ERROR WHILE EXECUTING UNIT OPERATIONS BLOCK: "HEX1" (MODEL: "HEATX")      
                                                               (UHE02I.2)       
      "COLD" STREAM IS HOTTER THAN "HOT" STREAM                                 
      BLOCK BYPASSED                                                            

      UOS BLOCK FD       MODEL: FLASH2                                            TIME =      0.36
      KODE = 1  NTRIAL =   4  T = 354.1845  P =  47622.8      V = 0.599947      Q =  0.00000    

      UOS BLOCK MIX2     MODEL: MIXER                                             TIME =      0.36
      KODE = 1  NTRIAL =   4  T = 355.5986  P =  50835.1      V = 1.739264E-02  Q =  0.00000    

      UOS BLOCK P1       MODEL: PUMP                                              TIME =      0.36

  **  ERROR WHILE EXECUTING UNIT OPERATIONS BLOCK: "P1" (MODEL: "PUMP")         
                                                               (UPC01.4)        
      FEED HAS    1.74 % VAPOR. OUTLET CONDITIONS MAY BE WRONG.                 
      VOL-FLOW   =  0.8064     , DELTA P    =  0.5150E+05 , PUMP EFF   =  0.8594    
      FLUID PWR  =  0.4153E+05 , BRAKE PWR  =  0.4833E+05 , ELEC PWR   =  0.4833E+05

      UOS BLOCK HEX3     MODEL: HEATX                                             TIME =      0.36

  **  ERROR WHILE EXECUTING UNIT OPERATIONS BLOCK: "HEX3" (MODEL: "HEATX")      
                                                               (UHE02I.2)       
      "COLD" STREAM IS HOTTER THAN "HOT" STREAM                                 
      BLOCK BYPASSED                                                            

      CONVERGENCE BLOCK $OLVER01  METHOD: WEGSTEIN                                TIME =      0.36
      ITER   2 For Tear Streams: VF        FC

      --FLASH TEAR STREAM VF      
      NO. TEMP ITER =    4     TEMP =  354.185    
      KODE = 1  NTRIAL =   1  T = 354.1845  P =  47622.8      V =  1.00000      Q =  0.00000    

      --FLASH TEAR STREAM FC      
      NO. TEMP ITER =    4     TEMP =  365.677    
      KODE = 1  NTRIAL =   2  T = 365.6771  P =  102338.      V =  0.00000      Q =  0.00000    

  LOOP $OLVER01 ITER    2:   8 VARS NOT CONVERGED, MAX ERR/TOL      10000.        TIME =      0.36

      UOS BLOCK CRYST    MODEL: CRYSTALLIZER                                      TIME =      0.36

  *   WARNING WHILE EXECUTING UNIT OPERATIONS BLOCK: "CRYST" (MODEL:            
      "CRYSTALLIZER")                                          (UCR02.32)       
      THE CRYSTAL PRODUCT FLOW RATE IS ZERO.                                    

      SPEC = PV    TEMP =   374.61      PRES =  0.10234E+06  DUTY =  0.58374E+09
      CRYSTAL PROD RATE =   0.0000      RECYCLED FLOW RATE =   0.0000    
      VENT FLOW =    245.50      MAGMA DEN =  0.10000E+36  RES TIME =  0.10000E+36

      UOS BLOCK FILTER   MODEL: FILTER                                            TIME =      0.36

  **  ERROR WHILE EXECUTING UNIT OPERATIONS BLOCK: "FILTER" (MODEL: "FILTER")   
                                                               (SOLSEP.4)       
      ZERO SOLID FLOW SPECIFIED IN FLUID OUTLET. SPECIFIED SOLID LOAD           
      OF FLUID OUTLET CANNOT BE MET. ALL FLUID SET TO FLUID OUTLET.             

      UOS BLOCK B5       MODEL: MIXER                                             TIME =      0.36
      KODE = 1   NO. TEMP ITER =    4     TEMP =  361.614    
      KPHASE =    1 KODE =    1 T =  361.614     P =  66328.9     Q =  0.00000    

      UOS BLOCK HEX2     MODEL: HEATER                                            TIME =      0.36
      KODE = 1  NTRIAL =   3  T = 361.6781  P =  66328.9      V = 0.303585      Q =  0.00000    

      UOS BLOCK HEX1     MODEL: HEATX                                             TIME =      0.36
      SPECIFICATION: EXCHANGER DUTY       0.71445E+08
      FLOW TYPE:     COUNTERCURRENT  
      HOT:  TIN=  361.68  PIN= 66329.       TOUT=  361.68  POUT= 66329.    
      COLD: TIN=  325.66  PIN=0.10132E+06   TOUT=  349.68  POUT=0.10132E+06
                              DUTY=0.71445E+08

      UOS BLOCK FD       MODEL: FLASH2                                            TIME =      0.36
      KODE = 1  NTRIAL =   3  T = 354.2993  P =  47622.8      V = 0.642912      Q =  0.00000    

      UOS BLOCK MIX2     MODEL: MIXER                                             TIME =      0.44
      KODE = 1  NTRIAL =   3  T = 355.9516  P =  50835.1      V = 1.811680E-02  Q =  0.00000    

      UOS BLOCK P1       MODEL: PUMP                                              TIME =      0.44

  **  ERROR WHILE EXECUTING UNIT OPERATIONS BLOCK: "P1" (MODEL: "PUMP")         
                                                               (UPC01.4)        
      FEED HAS    1.81 % VAPOR. OUTLET CONDITIONS MAY BE WRONG.                 
      VOL-FLOW   =  0.8290     , DELTA P    =  0.5150E+05 , PUMP EFF   =  0.8594    
      FLUID PWR  =  0.4270E+05 , BRAKE PWR  =  0.4969E+05 , ELEC PWR   =  0.4969E+05

      UOS BLOCK HEX3     MODEL: HEATX                                             TIME =      0.44

  **  ERROR WHILE EXECUTING UNIT OPERATIONS BLOCK: "HEX3" (MODEL: "HEATX")      
                                                               (UHE02I.2)       
      "COLD" STREAM IS HOTTER THAN "HOT" STREAM                                 
      BLOCK BYPASSED                                                            

      CONVERGENCE BLOCK $OLVER01  METHOD: WEGSTEIN                                TIME =      0.44
      ITER   3 For Tear Streams: VF        FC

      --FLASH TEAR STREAM VF      
      NO. TEMP ITER =    4     TEMP =  354.299    
      KODE = 1  NTRIAL =   1  T = 354.2993  P =  47622.8      V =  1.00000      Q =  0.00000    

      --FLASH TEAR STREAM FC      
      KODE = 1  NTRIAL =   5  T = 375.2595  P =  102338.      V = 0.342868      Q =  0.00000    

  LOOP $OLVER01 ITER    3:   5 VARS NOT CONVERGED, MAX ERR/TOL      5000.0        TIME =      0.44

      UOS BLOCK CRYST    MODEL: CRYSTALLIZER                                      TIME =      0.44

  *   WARNING WHILE EXECUTING UNIT OPERATIONS BLOCK: "CRYST" (MODEL:            
      "CRYSTALLIZER")                                          (UCR02.32)       
      THE CRYSTAL PRODUCT FLOW RATE IS ZERO.                                    

      SPEC = PV    TEMP =   375.19      PRES =  0.10234E+06  DUTY = -0.42276E+08
      CRYSTAL PROD RATE =   0.0000      RECYCLED FLOW RATE =   0.0000    
      VENT FLOW =    245.50      MAGMA DEN =  0.10000E+36  RES TIME =  0.10000E+36

      UOS BLOCK FILTER   MODEL: FILTER                                            TIME =      0.44

  **  ERROR WHILE EXECUTING UNIT OPERATIONS BLOCK: "FILTER" (MODEL: "FILTER")   
                                                               (SOLSEP.4)       
      ZERO SOLID FLOW SPECIFIED IN FLUID OUTLET. SPECIFIED SOLID LOAD           
      OF FLUID OUTLET CANNOT BE MET. ALL FLUID SET TO FLUID OUTLET.             

      UOS BLOCK B5       MODEL: MIXER                                             TIME =      0.44
      KODE = 1   NO. TEMP ITER =    4     TEMP =  361.559    
      KPHASE =    1 KODE =    1 T =  361.559     P =  66328.9     Q =  0.00000    

      UOS BLOCK HEX2     MODEL: HEATER                                            TIME =      0.44
      KODE = 1  NTRIAL =   1  T = 361.6781  P =  66328.9      V = 0.336137      Q =  0.00000    

      UOS BLOCK HEX1     MODEL: HEATX                                             TIME =      0.44
      SPECIFICATION: EXCHANGER DUTY       0.71445E+08
      FLOW TYPE:     COUNTERCURRENT  
      HOT:  TIN=  361.68  PIN= 66329.       TOUT=  361.68  POUT= 66329.    
      COLD: TIN=  325.66  PIN=0.10132E+06   TOUT=  349.68  POUT=0.10132E+06
                              DUTY=0.71445E+08

      UOS BLOCK FD       MODEL: FLASH2                                            TIME =      0.44
      KODE = 1  NTRIAL =   1  T = 354.2993  P =  47622.8      V = 0.642911      Q =  0.00000    

      UOS BLOCK MIX2     MODEL: MIXER                                             TIME =      0.44
      KODE = 1  NTRIAL =   4  T = 356.3005  P =  50835.1      V = 1.744927E-02  Q =  0.00000    

      UOS BLOCK P1       MODEL: PUMP                                              TIME =      0.44

  **  ERROR WHILE EXECUTING UNIT OPERATIONS BLOCK: "P1" (MODEL: "PUMP")         
                                                               (UPC01.4)        
      FEED HAS    1.74 % VAPOR. OUTLET CONDITIONS MAY BE WRONG.                 
      VOL-FLOW   =  0.8497     , DELTA P    =  0.5150E+05 , PUMP EFF   =  0.8594    
      FLUID PWR  =  0.4376E+05 , BRAKE PWR  =  0.5093E+05 , ELEC PWR   =  0.5093E+05

      UOS BLOCK HEX3     MODEL: HEATX                                             TIME =      0.44

  **  ERROR WHILE EXECUTING UNIT OPERATIONS BLOCK: "HEX3" (MODEL: "HEATX")      
                                                               (UHE02I.2)       
      "COLD" STREAM IS HOTTER THAN "HOT" STREAM                                 
      BLOCK BYPASSED                                                            

      CONVERGENCE BLOCK $OLVER01  METHOD: WEGSTEIN                                TIME =      0.44
      ITER   4 For Tear Streams: VF        FC

      --FLASH TEAR STREAM VF      
      NO. TEMP ITER =    4     TEMP =  354.299    
      KODE = 1  NTRIAL =   1  T = 354.2993  P =  47622.8      V =  1.00000      Q =  0.00000    

      --FLASH TEAR STREAM FC      
      NO. TEMP ITER =    5     TEMP =  317.501    
      KODE = 1  NTRIAL =   2  T = 317.5013  P =  102338.      V =  0.00000      Q =  0.00000    

  LOOP $OLVER01 ITER    4:   5 VARS NOT CONVERGED, MAX ERR/TOL      3333.3        TIME =      0.44

      UOS BLOCK CRYST    MODEL: CRYSTALLIZER                                      TIME =      0.44

      SPEC = PV    TEMP =   375.68      PRES =  0.10234E+06  DUTY =  0.73526E+09
      CRYSTAL PROD RATE =   4.6899      RECYCLED FLOW RATE =   0.0000    
      VENT FLOW =    245.50      MAGMA DEN =   7.8438      RES TIME =   0.0000    

      UOS BLOCK FILTER   MODEL: FILTER                                            TIME =      0.44

      UOS BLOCK B5       MODEL: MIXER                                             TIME =      0.44
      KODE = 1   NO. TEMP ITER =    4     TEMP =  361.753    
      KPHASE =    1 KODE =    1 T =  361.753     P =  66328.9     Q =  0.00000    

      UOS BLOCK HEX2     MODEL: HEATER                                            TIME =      0.44
      KODE = 1  NTRIAL =   1  T = 361.6781  P =  66328.9      V = 0.334066      Q =  0.00000    

      UOS BLOCK HEX1     MODEL: HEATX                                             TIME =      0.44
      SPECIFICATION: EXCHANGER DUTY       0.71445E+08
      FLOW TYPE:     COUNTERCURRENT  
      HOT:  TIN=  361.68  PIN= 66329.       TOUT=  361.68  POUT= 66329.    
      COLD: TIN=  325.66  PIN=0.10132E+06   TOUT=  349.68  POUT=0.10132E+06
                              DUTY=0.71445E+08

      UOS BLOCK FD       MODEL: FLASH2                                            TIME =      0.44
      KODE = 1  NTRIAL =   1  T = 354.2993  P =  47622.8      V = 0.642911      Q =  0.00000    

      UOS BLOCK MIX2     MODEL: MIXER                                             TIME =      0.44
      NO. TEMP ITER =    4     TEMP =  354.360    
      KODE = 1  NTRIAL =   2  T = 354.3604  P =  50835.1      V =  0.00000      Q =  0.00000    

      UOS BLOCK P1       MODEL: PUMP                                              TIME =      0.44
      VOL-FLOW   =  0.2746     , DELTA P    =  0.5150E+05 , PUMP EFF   =  0.8542    
      FLUID PWR  =  0.1414E+05 , BRAKE PWR  =  0.1656E+05 , ELEC PWR   =  0.1656E+05

      UOS BLOCK HEX3     MODEL: HEATX                                             TIME =      0.44
      SPECIFICATION: COLD TEMP CHANGE      4.0000    
      FLOW TYPE:     COUNTERCURRENT  
      HOT:  TIN=  361.68  PIN= 66329.       TOUT=  361.68  POUT= 66329.    
      COLD: TIN=  354.37  PIN=0.10234E+06   TOUT=  358.37  POUT=0.10234E+06
                              DUTY=0.42162E+07

      CONVERGENCE BLOCK $OLVER01  METHOD: WEGSTEIN                                TIME =      0.44
      ITER   5 For Tear Streams: VF        FC

      --FLASH TEAR STREAM VF      
      NO. TEMP ITER =    4     TEMP =  354.299    
      KODE = 1  NTRIAL =   1  T = 354.2993  P =  47622.8      V =  1.00000      Q =  0.00000    

      --FLASH TEAR STREAM FC      
      NO. TEMP ITER =    5     TEMP =  299.922    
      KODE = 1  NTRIAL =   2  T = 299.9220  P =  102338.      V =  0.00000      Q =  0.00000    

  LOOP $OLVER01 ITER    5:   5 VARS NOT CONVERGED, MAX ERR/TOL      10000.        TIME =      0.44

      UOS BLOCK CRYST    MODEL: CRYSTALLIZER                                      TIME =      0.45

      SPEC = PV    TEMP =   375.68      PRES =  0.10234E+06  DUTY =  0.60087E+09
      CRYSTAL PROD RATE =   34.562      RECYCLED FLOW RATE =   0.0000    
      VENT FLOW =    245.50      MAGMA DEN =   2023.8      RES TIME =   0.0000    

      UOS BLOCK FILTER   MODEL: FILTER                                            TIME =      0.46

  *   WARNING WHILE EXECUTING UNIT OPERATIONS BLOCK: "FILTER" (MODEL: "FILTER") 
                                                               (SOLSEP.19)      
      SOLID LOAD OF FLUID PRODUCT TOO SMALL FOR GIVEN FLOW SPLIT OF SOLID       
      PHASE. CALCULATING WITH MINIMUM SOLID LOAD OF FLUID PRODUCT (3.55         
      KG/KG).                                                                   

      UOS BLOCK B5       MODEL: MIXER                                             TIME =      0.46
      KODE = 1   NO. TEMP ITER =    3     TEMP =  361.754    
      KPHASE =    1 KODE =    1 T =  361.754     P =  66328.9     Q =  0.00000    

      UOS BLOCK HEX2     MODEL: HEATER                                            TIME =      0.46
      KODE = 1  NTRIAL =   1  T = 361.6781  P =  66328.9      V = 0.334066      Q =  0.00000    

      UOS BLOCK HEX1     MODEL: HEATX                                             TIME =      0.46
      SPECIFICATION: EXCHANGER DUTY       0.71445E+08
      FLOW TYPE:     COUNTERCURRENT  
      HOT:  TIN=  361.68  PIN= 66329.       TOUT=  361.68  POUT= 66329.    
      COLD: TIN=  325.66  PIN=0.10132E+06   TOUT=  349.68  POUT=0.10132E+06
                              DUTY=0.71445E+08

      UOS BLOCK FD       MODEL: FLASH2                                            TIME =      0.46
      KODE = 1  NTRIAL =   1  T = 354.2993  P =  47622.8      V = 0.642911      Q =  0.00000    

      UOS BLOCK MIX2     MODEL: MIXER                                             TIME =      0.46
      NO. TEMP ITER =    4     TEMP =  354.407    
      KODE = 1  NTRIAL =   2  T = 354.4068  P =  50835.1      V =  0.00000      Q =  0.00000    

      UOS BLOCK P1       MODEL: PUMP                                              TIME =      0.46
      VOL-FLOW   =  0.2760     , DELTA P    =  0.5150E+05 , PUMP EFF   =  0.8544    
      FLUID PWR  =  0.1422E+05 , BRAKE PWR  =  0.1664E+05 , ELEC PWR   =  0.1664E+05

      UOS BLOCK HEX3     MODEL: HEATX                                             TIME =      0.46
      SPECIFICATION: COLD TEMP CHANGE      4.0000    
      FLOW TYPE:     COUNTERCURRENT  
      HOT:  TIN=  361.68  PIN= 66329.       TOUT=  361.68  POUT= 66329.    
      COLD: TIN=  354.41  PIN=0.10234E+06   TOUT=  358.41  POUT=0.10234E+06
                              DUTY=0.42273E+07

      CONVERGENCE BLOCK $OLVER01  METHOD: WEGSTEIN                                TIME =      0.46
      ITER   6 For Tear Streams: VF        FC

      --FLASH TEAR STREAM VF      
      NO. TEMP ITER =    4     TEMP =  354.299    
      KODE = 1  NTRIAL =   1  T = 354.2993  P =  47622.8      V =  1.00000      Q =  0.00000    

      --FLASH TEAR STREAM FC      
      NO. TEMP ITER =    4     TEMP =  358.413    
      KODE = 1  NTRIAL =   2  T = 358.4130  P =  102338.      V =  0.00000      Q =  0.00000    

  LOOP $OLVER01 ITER    6:   5 VARS NOT CONVERGED, MAX ERR/TOL      63695.        TIME =      0.46

      UOS BLOCK CRYST    MODEL: CRYSTALLIZER                                      TIME =      0.46

      SPEC = PV    TEMP =   375.68      PRES =  0.10234E+06  DUTY =  0.53947E+09
      CRYSTAL PROD RATE =   37.549      RECYCLED FLOW RATE =   0.0000    
      VENT FLOW =    245.50      MAGMA DEN =   2029.0      RES TIME =   0.0000    

      UOS BLOCK FILTER   MODEL: FILTER                                            TIME =      0.49

  *   WARNING WHILE EXECUTING UNIT OPERATIONS BLOCK: "FILTER" (MODEL: "FILTER") 
                                                               (SOLSEP.19)      
      SOLID LOAD OF FLUID PRODUCT TOO SMALL FOR GIVEN FLOW SPLIT OF SOLID       
      PHASE. CALCULATING WITH MINIMUM SOLID LOAD OF FLUID PRODUCT (3.73         
      KG/KG).                                                                   

      UOS BLOCK B5       MODEL: MIXER                                             TIME =      0.49
      KODE = 1   NO. TEMP ITER =    3     TEMP =  361.753    
      KPHASE =    1 KODE =    1 T =  361.753     P =  66328.9     Q =  0.00000    

      UOS BLOCK HEX2     MODEL: HEATER                                            TIME =      0.49
      KODE = 1  NTRIAL =   1  T = 361.6781  P =  66328.9      V = 0.334065      Q =  0.00000    

      UOS BLOCK HEX1     MODEL: HEATX                                             TIME =      0.49
      SPECIFICATION: EXCHANGER DUTY       0.71445E+08
      FLOW TYPE:     COUNTERCURRENT  
      HOT:  TIN=  361.68  PIN= 66329.       TOUT=  361.68  POUT= 66329.    
      COLD: TIN=  325.66  PIN=0.10132E+06   TOUT=  349.68  POUT=0.10132E+06
                              DUTY=0.71445E+08

      UOS BLOCK FD       MODEL: FLASH2                                            TIME =      0.49
      KODE = 1  NTRIAL =   1  T = 354.2993  P =  47622.8      V = 0.642911      Q =  0.00000    

      UOS BLOCK MIX2     MODEL: MIXER                                             TIME =      0.49
      NO. TEMP ITER =    4     TEMP =  354.413    
      KODE = 1  NTRIAL =   2  T = 354.4132  P =  50835.1      V =  0.00000      Q =  0.00000    

      UOS BLOCK P1       MODEL: PUMP                                              TIME =      0.49
      VOL-FLOW   =  0.2762     , DELTA P    =  0.5150E+05 , PUMP EFF   =  0.8544    
      FLUID PWR  =  0.1423E+05 , BRAKE PWR  =  0.1665E+05 , ELEC PWR   =  0.1665E+05

      UOS BLOCK HEX3     MODEL: HEATX                                             TIME =      0.49
      SPECIFICATION: COLD TEMP CHANGE      4.0000    
      FLOW TYPE:     COUNTERCURRENT  
      HOT:  TIN=  361.68  PIN= 66329.       TOUT=  361.68  POUT= 66329.    
      COLD: TIN=  354.42  PIN=0.10234E+06   TOUT=  358.42  POUT=0.10234E+06
                              DUTY=0.42289E+07

      CONVERGENCE BLOCK $OLVER01  METHOD: WEGSTEIN                                TIME =      0.49
      ITER   7 For Tear Streams: VF        FC

      --FLASH TEAR STREAM VF      
      NO. TEMP ITER =    4     TEMP =  354.299    
      KODE = 1  NTRIAL =   1  T = 354.2993  P =  47622.8      V =  1.00000      Q =  0.00000    

      --FLASH TEAR STREAM FC      
      NO. TEMP ITER =    4     TEMP =  357.968    
      KODE = 1  NTRIAL =   2  T = 357.9676  P =  102338.      V =  0.00000      Q =  0.00000    

  LOOP $OLVER01 ITER    7:   5 VARS NOT CONVERGED, MAX ERR/TOL      864.38        TIME =      0.49

      UOS BLOCK CRYST    MODEL: CRYSTALLIZER                                      TIME =      0.49

      SPEC = PV    TEMP =   375.68      PRES =  0.10234E+06  DUTY =  0.53991E+09
      CRYSTAL PROD RATE =   37.916      RECYCLED FLOW RATE =   0.0000    
      VENT FLOW =    245.50      MAGMA DEN =   2026.4      RES TIME =   0.0000    

      UOS BLOCK FILTER   MODEL: FILTER                                            TIME =      0.52

  *   WARNING WHILE EXECUTING UNIT OPERATIONS BLOCK: "FILTER" (MODEL: "FILTER") 
                                                               (SOLSEP.19)      
      SOLID LOAD OF FLUID PRODUCT TOO SMALL FOR GIVEN FLOW SPLIT OF SOLID       
      PHASE. CALCULATING WITH MINIMUM SOLID LOAD OF FLUID PRODUCT (3.64         
      KG/KG).                                                                   

      UOS BLOCK B5       MODEL: MIXER                                             TIME =      0.52
      KODE = 1   NO. TEMP ITER =    3     TEMP =  361.754    
      KPHASE =    1 KODE =    1 T =  361.754     P =  66328.9     Q =  0.00000    

      UOS BLOCK HEX2     MODEL: HEATER                                            TIME =      0.52
      KODE = 1  NTRIAL =   1  T = 361.6781  P =  66328.9      V = 0.334066      Q =  0.00000    

      UOS BLOCK HEX1     MODEL: HEATX                                             TIME =      0.52
      SPECIFICATION: EXCHANGER DUTY       0.71445E+08
      FLOW TYPE:     COUNTERCURRENT  
      HOT:  TIN=  361.68  PIN= 66329.       TOUT=  361.68  POUT= 66329.    
      COLD: TIN=  325.66  PIN=0.10132E+06   TOUT=  349.68  POUT=0.10132E+06
                              DUTY=0.71445E+08

      UOS BLOCK FD       MODEL: FLASH2                                            TIME =      0.52
      KODE = 1  NTRIAL =   1  T = 354.2993  P =  47622.8      V = 0.642911      Q =  0.00000    

      UOS BLOCK MIX2     MODEL: MIXER                                             TIME =      0.52
      NO. TEMP ITER =    4     TEMP =  354.416    
      KODE = 1  NTRIAL =   2  T = 354.4157  P =  50835.1      V =  0.00000      Q =  0.00000    

      UOS BLOCK P1       MODEL: PUMP                                              TIME =      0.52
      VOL-FLOW   =  0.2763     , DELTA P    =  0.5150E+05 , PUMP EFF   =  0.8544    
      FLUID PWR  =  0.1423E+05 , BRAKE PWR  =  0.1665E+05 , ELEC PWR   =  0.1665E+05

      UOS BLOCK HEX3     MODEL: HEATX                                             TIME =      0.52
      SPECIFICATION: COLD TEMP CHANGE      4.0000    
      FLOW TYPE:     COUNTERCURRENT  
      HOT:  TIN=  361.68  PIN= 66329.       TOUT=  361.68  POUT= 66329.    
      COLD: TIN=  354.42  PIN=0.10234E+06   TOUT=  358.42  POUT=0.10234E+06
                              DUTY=0.42295E+07

      CONVERGENCE BLOCK $OLVER01  METHOD: WEGSTEIN                                TIME =      0.52
      ITER   8 For Tear Streams: VF        FC

      --FLASH TEAR STREAM VF      
      NO. TEMP ITER =    4     TEMP =  354.299    
      KODE = 1  NTRIAL =   1  T = 354.2993  P =  47622.8      V =  1.00000      Q =  0.00000    

      --FLASH TEAR STREAM FC      
      NO. TEMP ITER =    4     TEMP =  358.667    
      KODE = 1  NTRIAL =   2  T = 358.6667  P =  102338.      V =  0.00000      Q =  0.00000    

  LOOP $OLVER01 ITER    8:   3 VARS NOT CONVERGED, MAX ERR/TOL      9.1338        TIME =      0.52

      UOS BLOCK CRYST    MODEL: CRYSTALLIZER                                      TIME =      0.52

      SPEC = PV    TEMP =   375.68      PRES =  0.10234E+06  DUTY =  0.53926E+09
      CRYSTAL PROD RATE =   37.843      RECYCLED FLOW RATE =   0.0000    
      VENT FLOW =    245.50      MAGMA DEN =   2004.9      RES TIME =   0.0000    

      UOS BLOCK FILTER   MODEL: FILTER                                            TIME =      0.55

  *   WARNING WHILE EXECUTING UNIT OPERATIONS BLOCK: "FILTER" (MODEL: "FILTER") 
                                                               (SOLSEP.19)      
      SOLID LOAD OF FLUID PRODUCT TOO SMALL FOR GIVEN FLOW SPLIT OF SOLID       
      PHASE. CALCULATING WITH MINIMUM SOLID LOAD OF FLUID PRODUCT (3.03         
      KG/KG).                                                                   

      UOS BLOCK B5       MODEL: MIXER                                             TIME =      0.55
      KODE = 1   NO. TEMP ITER =    3     TEMP =  361.754    
      KPHASE =    1 KODE =    1 T =  361.754     P =  66328.9     Q =  0.00000    

      UOS BLOCK HEX2     MODEL: HEATER                                            TIME =      0.55
      KODE = 1  NTRIAL =   1  T = 361.6781  P =  66328.9      V = 0.334065      Q =  0.00000    

      UOS BLOCK HEX1     MODEL: HEATX                                             TIME =      0.55
      SPECIFICATION: EXCHANGER DUTY       0.71445E+08
      FLOW TYPE:     COUNTERCURRENT  
      HOT:  TIN=  361.68  PIN= 66329.       TOUT=  361.68  POUT= 66329.    
      COLD: TIN=  325.66  PIN=0.10132E+06   TOUT=  349.68  POUT=0.10132E+06
                              DUTY=0.71445E+08

      UOS BLOCK FD       MODEL: FLASH2                                            TIME =      0.55
      KODE = 1  NTRIAL =   1  T = 354.2993  P =  47622.8      V = 0.642911      Q =  0.00000    

      UOS BLOCK MIX2     MODEL: MIXER                                             TIME =      0.55
      NO. TEMP ITER =    4     TEMP =  354.428    
      KODE = 1  NTRIAL =   2  T = 354.4276  P =  50835.1      V =  0.00000      Q =  0.00000    

      UOS BLOCK P1       MODEL: PUMP                                              TIME =      0.55
      VOL-FLOW   =  0.2765     , DELTA P    =  0.5150E+05 , PUMP EFF   =  0.8544    
      FLUID PWR  =  0.1424E+05 , BRAKE PWR  =  0.1666E+05 , ELEC PWR   =  0.1666E+05

      UOS BLOCK HEX3     MODEL: HEATX                                             TIME =      0.55
      SPECIFICATION: COLD TEMP CHANGE      4.0000    
      FLOW TYPE:     COUNTERCURRENT  
      HOT:  TIN=  361.68  PIN= 66329.       TOUT=  361.68  POUT= 66329.    
      COLD: TIN=  354.43  PIN=0.10234E+06   TOUT=  358.43  POUT=0.10234E+06
                              DUTY=0.42324E+07

      CONVERGENCE BLOCK $OLVER01  METHOD: WEGSTEIN                                TIME =      0.55
      ITER   9 For Tear Streams: VF        FC

      --FLASH TEAR STREAM VF      
      NO. TEMP ITER =    4     TEMP =  354.299    
      KODE = 1  NTRIAL =   1  T = 354.2993  P =  47622.8      V =  1.00000      Q =  0.00000    

      --FLASH TEAR STREAM FC      
      NO. TEMP ITER =    4     TEMP =  358.486    
      KODE = 1  NTRIAL =   2  T = 358.4863  P =  102338.      V =  0.00000      Q =  0.00000    

  LOOP $OLVER01 ITER    9:   4 VARS NOT CONVERGED, MAX ERR/TOL     -20.561        TIME =      0.55

      UOS BLOCK CRYST    MODEL: CRYSTALLIZER                                      TIME =      0.55

      SPEC = PV    TEMP =   375.68      PRES =  0.10234E+06  DUTY =  0.53941E+09
      CRYSTAL PROD RATE =   37.877      RECYCLED FLOW RATE =   0.0000    
      VENT FLOW =    245.50      MAGMA DEN =   2001.5      RES TIME =   0.0000    

      UOS BLOCK FILTER   MODEL: FILTER                                            TIME =      0.58

  *   WARNING WHILE EXECUTING UNIT OPERATIONS BLOCK: "FILTER" (MODEL: "FILTER") 
                                                               (SOLSEP.19)      
      SOLID LOAD OF FLUID PRODUCT TOO SMALL FOR GIVEN FLOW SPLIT OF SOLID       
      PHASE. CALCULATING WITH MINIMUM SOLID LOAD OF FLUID PRODUCT (2.95         
      KG/KG).                                                                   

      UOS BLOCK B5       MODEL: MIXER                                             TIME =      0.58
      KODE = 1   NO. TEMP ITER =    3     TEMP =  361.753    
      KPHASE =    1 KODE =    1 T =  361.753     P =  66328.9     Q =  0.00000    

      UOS BLOCK HEX2     MODEL: HEATER                                            TIME =      0.58
      KODE = 1  NTRIAL =   1  T = 361.6781  P =  66328.9      V = 0.334065      Q =  0.00000    

      UOS BLOCK HEX1     MODEL: HEATX                                             TIME =      0.58
      SPECIFICATION: EXCHANGER DUTY       0.71445E+08
      FLOW TYPE:     COUNTERCURRENT  
      HOT:  TIN=  361.68  PIN= 66329.       TOUT=  361.68  POUT= 66329.    
      COLD: TIN=  325.66  PIN=0.10132E+06   TOUT=  349.68  POUT=0.10132E+06
                              DUTY=0.71445E+08

      UOS BLOCK FD       MODEL: FLASH2                                            TIME =      0.58
      KODE = 1  NTRIAL =   1  T = 354.2993  P =  47622.8      V = 0.642911      Q =  0.00000    

      UOS BLOCK MIX2     MODEL: MIXER                                             TIME =      0.58
      NO. TEMP ITER =    4     TEMP =  354.430    
      KODE = 1  NTRIAL =   2  T = 354.4296  P =  50835.1      V =  0.00000      Q =  0.00000    

      UOS BLOCK P1       MODEL: PUMP                                              TIME =      0.58
      VOL-FLOW   =  0.2765     , DELTA P    =  0.5150E+05 , PUMP EFF   =  0.8544    
      FLUID PWR  =  0.1424E+05 , BRAKE PWR  =  0.1667E+05 , ELEC PWR   =  0.1667E+05

      UOS BLOCK HEX3     MODEL: HEATX                                             TIME =      0.58
      SPECIFICATION: COLD TEMP CHANGE      4.0000    
      FLOW TYPE:     COUNTERCURRENT  
      HOT:  TIN=  361.68  PIN= 66329.       TOUT=  361.68  POUT= 66329.    
      COLD: TIN=  354.44  PIN=0.10234E+06   TOUT=  358.44  POUT=0.10234E+06
                              DUTY=0.42328E+07

      CONVERGENCE BLOCK $OLVER01  METHOD: WEGSTEIN                                TIME =      0.58
      ITER  10 For Tear Streams: VF        FC

      --FLASH TEAR STREAM VF      
      NO. TEMP ITER =    4     TEMP =  354.299    
      KODE = 1  NTRIAL =   1  T = 354.2993  P =  47622.8      V =  1.00000      Q =  0.00000    

      --FLASH TEAR STREAM FC      
      NO. TEMP ITER =    4     TEMP =  358.590    
      KODE = 1  NTRIAL =   2  T = 358.5901  P =  102338.      V =  0.00000      Q =  0.00000    

  LOOP $OLVER01 ITER   10:   4 VARS NOT CONVERGED, MAX ERR/TOL      9.2244        TIME =      0.58

      UOS BLOCK CRYST    MODEL: CRYSTALLIZER                                      TIME =      0.58

      SPEC = PV    TEMP =   375.68      PRES =  0.10234E+06  DUTY =  0.53935E+09
      CRYSTAL PROD RATE =   37.846      RECYCLED FLOW RATE =   0.0000    
      VENT FLOW =    245.50      MAGMA DEN =   1980.5      RES TIME =   0.0000    

      UOS BLOCK FILTER   MODEL: FILTER                                            TIME =      0.60

  *   WARNING WHILE EXECUTING UNIT OPERATIONS BLOCK: "FILTER" (MODEL: "FILTER") 
                                                               (SOLSEP.19)      
      SOLID LOAD OF FLUID PRODUCT TOO SMALL FOR GIVEN FLOW SPLIT OF SOLID       
      PHASE. CALCULATING WITH MINIMUM SOLID LOAD OF FLUID PRODUCT (2.53         
      KG/KG).                                                                   

      UOS BLOCK B5       MODEL: MIXER                                             TIME =      0.60
      KODE = 1   NO. TEMP ITER =    3     TEMP =  361.754    
      KPHASE =    1 KODE =    1 T =  361.754     P =  66328.9     Q =  0.00000    

      UOS BLOCK HEX2     MODEL: HEATER                                            TIME =      0.60
      KODE = 1  NTRIAL =   1  T = 361.6781  P =  66328.9      V = 0.334066      Q =  0.00000    

      UOS BLOCK HEX1     MODEL: HEATX                                             TIME =      0.60
      SPECIFICATION: EXCHANGER DUTY       0.71445E+08
      FLOW TYPE:     COUNTERCURRENT  
      HOT:  TIN=  361.68  PIN= 66329.       TOUT=  361.68  POUT= 66329.    
      COLD: TIN=  325.66  PIN=0.10132E+06   TOUT=  349.68  POUT=0.10132E+06
                              DUTY=0.71445E+08

      UOS BLOCK FD       MODEL: FLASH2                                            TIME =      0.60
      KODE = 1  NTRIAL =   1  T = 354.2993  P =  47622.8      V = 0.642911      Q =  0.00000    

      UOS BLOCK MIX2     MODEL: MIXER                                             TIME =      0.60
      NO. TEMP ITER =    4     TEMP =  354.441    
      KODE = 1  NTRIAL =   2  T = 354.4415  P =  50835.1      V =  0.00000      Q =  0.00000    

      UOS BLOCK P1       MODEL: PUMP                                              TIME =      0.60
      VOL-FLOW   =  0.2767     , DELTA P    =  0.5150E+05 , PUMP EFF   =  0.8545    
      FLUID PWR  =  0.1425E+05 , BRAKE PWR  =  0.1668E+05 , ELEC PWR   =  0.1668E+05

      UOS BLOCK HEX3     MODEL: HEATX                                             TIME =      0.60
      SPECIFICATION: COLD TEMP CHANGE      4.0000    
      FLOW TYPE:     COUNTERCURRENT  
      HOT:  TIN=  361.68  PIN= 66329.       TOUT=  361.68  POUT= 66329.    
      COLD: TIN=  354.45  PIN=0.10234E+06   TOUT=  358.45  POUT=0.10234E+06
                              DUTY=0.42357E+07

      CONVERGENCE BLOCK $OLVER01  METHOD: WEGSTEIN                                TIME =      0.60
      ITER  11 For Tear Streams: VF        FC

      --FLASH TEAR STREAM VF      
      NO. TEMP ITER =    4     TEMP =  354.299    
      KODE = 1  NTRIAL =   1  T = 354.2993  P =  47622.8      V =  1.00000      Q =  0.00000    

      --FLASH TEAR STREAM FC      
      NO. TEMP ITER =    4     TEMP =  358.613    
      KODE = 1  NTRIAL =   2  T = 358.6127  P =  102338.      V =  0.00000      Q =  0.00000    

  LOOP $OLVER01 ITER   11:   4 VARS NOT CONVERGED, MAX ERR/TOL      12.453        TIME =      0.61

      UOS BLOCK CRYST    MODEL: CRYSTALLIZER                                      TIME =      0.61

      SPEC = PV    TEMP =   375.68      PRES =  0.10234E+06  DUTY =  0.53934E+09
      CRYSTAL PROD RATE =   37.841      RECYCLED FLOW RATE =   0.0000    
      VENT FLOW =    245.50      MAGMA DEN =   1960.2      RES TIME =   0.0000    

      UOS BLOCK FILTER   MODEL: FILTER                                            TIME =      0.63

  *   WARNING WHILE EXECUTING UNIT OPERATIONS BLOCK: "FILTER" (MODEL: "FILTER") 
                                                               (SOLSEP.19)      
      SOLID LOAD OF FLUID PRODUCT TOO SMALL FOR GIVEN FLOW SPLIT OF SOLID       
      PHASE. CALCULATING WITH MINIMUM SOLID LOAD OF FLUID PRODUCT (2.22         
      KG/KG).                                                                   

      UOS BLOCK B5       MODEL: MIXER                                             TIME =      0.63
      KODE = 1   NO. TEMP ITER =    3     TEMP =  361.754    
      KPHASE =    1 KODE =    1 T =  361.754     P =  66328.9     Q =  0.00000    

      UOS BLOCK HEX2     MODEL: HEATER                                            TIME =      0.63
      KODE = 1  NTRIAL =   1  T = 361.6781  P =  66328.9      V = 0.334066      Q =  0.00000    

      UOS BLOCK HEX1     MODEL: HEATX                                             TIME =      0.63
      SPECIFICATION: EXCHANGER DUTY       0.71445E+08
      FLOW TYPE:     COUNTERCURRENT  
      HOT:  TIN=  361.68  PIN= 66329.       TOUT=  361.68  POUT= 66329.    
      COLD: TIN=  325.66  PIN=0.10132E+06   TOUT=  349.68  POUT=0.10132E+06
                              DUTY=0.71445E+08

      UOS BLOCK FD       MODEL: FLASH2                                            TIME =      0.63
      KODE = 1  NTRIAL =   1  T = 354.2993  P =  47622.8      V = 0.642911      Q =  0.00000    

      UOS BLOCK MIX2     MODEL: MIXER                                             TIME =      0.63
      NO. TEMP ITER =    4     TEMP =  354.453    
      KODE = 1  NTRIAL =   2  T = 354.4534  P =  50835.1      V =  0.00000      Q =  0.00000    

      UOS BLOCK P1       MODEL: PUMP                                              TIME =      0.63
      VOL-FLOW   =  0.2769     , DELTA P    =  0.5150E+05 , PUMP EFF   =  0.8545    
      FLUID PWR  =  0.1426E+05 , BRAKE PWR  =  0.1669E+05 , ELEC PWR   =  0.1669E+05

      UOS BLOCK HEX3     MODEL: HEATX                                             TIME =      0.63
      SPECIFICATION: COLD TEMP CHANGE      4.0000    
      FLOW TYPE:     COUNTERCURRENT  
      HOT:  TIN=  361.68  PIN= 66329.       TOUT=  361.68  POUT= 66329.    
      COLD: TIN=  354.46  PIN=0.10234E+06   TOUT=  358.46  POUT=0.10234E+06
                              DUTY=0.42386E+07

      CONVERGENCE BLOCK $OLVER01  METHOD: WEGSTEIN                                TIME =      0.63
      ITER  12 For Tear Streams: VF        FC

      --FLASH TEAR STREAM VF      
      NO. TEMP ITER =    4     TEMP =  354.299    
      KODE = 1  NTRIAL =   1  T = 354.2993  P =  47622.8      V =  1.00000      Q =  0.00000    

      --FLASH TEAR STREAM FC      
      NO. TEMP ITER =    4     TEMP =  358.460    
      KODE = 1  NTRIAL =   2  T = 358.4601  P =  102338.      V =  0.00000      Q =  0.00000    

  LOOP $OLVER01 ITER   12:   4 VARS NOT CONVERGED, MAX ERR/TOL      12.748        TIME =      0.63

      UOS BLOCK CRYST    MODEL: CRYSTALLIZER                                      TIME =      0.63

      SPEC = PV    TEMP =   375.68      PRES =  0.10234E+06  DUTY =  0.53947E+09
      CRYSTAL PROD RATE =   37.877      RECYCLED FLOW RATE =   0.0000    
      VENT FLOW =    245.50      MAGMA DEN =   1957.0      RES TIME =   0.0000    

      UOS BLOCK FILTER   MODEL: FILTER                                            TIME =      0.65

  *   WARNING WHILE EXECUTING UNIT OPERATIONS BLOCK: "FILTER" (MODEL: "FILTER") 
                                                               (SOLSEP.19)      
      SOLID LOAD OF FLUID PRODUCT TOO SMALL FOR GIVEN FLOW SPLIT OF SOLID       
      PHASE. CALCULATING WITH MINIMUM SOLID LOAD OF FLUID PRODUCT (2.18         
      KG/KG).                                                                   

      UOS BLOCK B5       MODEL: MIXER                                             TIME =      0.65
      KODE = 1   NO. TEMP ITER =    3     TEMP =  361.754    
      KPHASE =    1 KODE =    1 T =  361.754     P =  66328.9     Q =  0.00000    

      UOS BLOCK HEX2     MODEL: HEATER                                            TIME =      0.65
      KODE = 1  NTRIAL =   1  T = 361.6781  P =  66328.9      V = 0.334066      Q =  0.00000    

      UOS BLOCK HEX1     MODEL: HEATX                                             TIME =      0.65
      SPECIFICATION: EXCHANGER DUTY       0.71445E+08
      FLOW TYPE:     COUNTERCURRENT  
      HOT:  TIN=  361.68  PIN= 66329.       TOUT=  361.68  POUT= 66329.    
      COLD: TIN=  325.66  PIN=0.10132E+06   TOUT=  349.68  POUT=0.10132E+06
                              DUTY=0.71445E+08

      UOS BLOCK FD       MODEL: FLASH2                                            TIME =      0.65
      KODE = 1  NTRIAL =   1  T = 354.2993  P =  47622.8      V = 0.642911      Q =  0.00000    

      UOS BLOCK MIX2     MODEL: MIXER                                             TIME =      0.65
      NO. TEMP ITER =    4     TEMP =  354.455    
      KODE = 1  NTRIAL =   2  T = 354.4554  P =  50835.1      V =  0.00000      Q =  0.00000    

      UOS BLOCK P1       MODEL: PUMP                                              TIME =      0.65
      VOL-FLOW   =  0.2769     , DELTA P    =  0.5150E+05 , PUMP EFF   =  0.8545    
      FLUID PWR  =  0.1426E+05 , BRAKE PWR  =  0.1669E+05 , ELEC PWR   =  0.1669E+05

      UOS BLOCK HEX3     MODEL: HEATX                                             TIME =      0.65
      SPECIFICATION: COLD TEMP CHANGE      4.0000    
      FLOW TYPE:     COUNTERCURRENT  
      HOT:  TIN=  361.68  PIN= 66329.       TOUT=  361.68  POUT= 66329.    
      COLD: TIN=  354.46  PIN=0.10234E+06   TOUT=  358.46  POUT=0.10234E+06
                              DUTY=0.42391E+07

      CONVERGENCE BLOCK $OLVER01  METHOD: WEGSTEIN                                TIME =      0.65
      ITER  13 For Tear Streams: VF        FC

      --FLASH TEAR STREAM VF      
      NO. TEMP ITER =    4     TEMP =  354.299    
      KODE = 1  NTRIAL =   1  T = 354.2993  P =  47622.8      V =  1.00000      Q =  0.00000    

      --FLASH TEAR STREAM FC      
      NO. TEMP ITER =    4     TEMP =  358.475    
      KODE = 1  NTRIAL =   2  T = 358.4754  P =  102338.      V =  0.00000      Q =  0.00000    

  LOOP $OLVER01 ITER   13:   4 VARS NOT CONVERGED, MAX ERR/TOL      9.7112        TIME =      0.65

      UOS BLOCK CRYST    MODEL: CRYSTALLIZER                                      TIME =      0.65

      SPEC = PV    TEMP =   375.68      PRES =  0.10234E+06  DUTY =  0.53945E+09
      CRYSTAL PROD RATE =   37.882      RECYCLED FLOW RATE =   0.0000    
      VENT FLOW =    245.50      MAGMA DEN =   1953.7      RES TIME =   0.0000    

      UOS BLOCK FILTER   MODEL: FILTER                                            TIME =      0.67

  *   WARNING WHILE EXECUTING UNIT OPERATIONS BLOCK: "FILTER" (MODEL: "FILTER") 
                                                               (SOLSEP.19)      
      SOLID LOAD OF FLUID PRODUCT TOO SMALL FOR GIVEN FLOW SPLIT OF SOLID       
      PHASE. CALCULATING WITH MINIMUM SOLID LOAD OF FLUID PRODUCT (2.14         
      KG/KG).                                                                   

      UOS BLOCK B5       MODEL: MIXER                                             TIME =      0.67
      KODE = 1   NO. TEMP ITER =    3     TEMP =  361.754    
      KPHASE =    1 KODE =    1 T =  361.754     P =  66328.9     Q =  0.00000    

      UOS BLOCK HEX2     MODEL: HEATER                                            TIME =      0.67
      KODE = 1  NTRIAL =   1  T = 361.6781  P =  66328.9      V = 0.334065      Q =  0.00000    

      UOS BLOCK HEX1     MODEL: HEATX                                             TIME =      0.67
      SPECIFICATION: EXCHANGER DUTY       0.71445E+08
      FLOW TYPE:     COUNTERCURRENT  
      HOT:  TIN=  361.68  PIN= 66329.       TOUT=  361.68  POUT= 66329.    
      COLD: TIN=  325.66  PIN=0.10132E+06   TOUT=  349.68  POUT=0.10132E+06
                              DUTY=0.71445E+08

      UOS BLOCK FD       MODEL: FLASH2                                            TIME =      0.67
      KODE = 1  NTRIAL =   1  T = 354.2993  P =  47622.8      V = 0.642911      Q =  0.00000    

      UOS BLOCK MIX2     MODEL: MIXER                                             TIME =      0.67
      NO. TEMP ITER =    4     TEMP =  354.457    
      KODE = 1  NTRIAL =   2  T = 354.4574  P =  50835.1      V =  0.00000      Q =  0.00000    

      UOS BLOCK P1       MODEL: PUMP                                              TIME =      0.67
      VOL-FLOW   =  0.2770     , DELTA P    =  0.5150E+05 , PUMP EFF   =  0.8545    
      FLUID PWR  =  0.1426E+05 , BRAKE PWR  =  0.1669E+05 , ELEC PWR   =  0.1669E+05

      UOS BLOCK HEX3     MODEL: HEATX                                             TIME =      0.67
      SPECIFICATION: COLD TEMP CHANGE      4.0000    
      FLOW TYPE:     COUNTERCURRENT  
      HOT:  TIN=  361.68  PIN= 66329.       TOUT=  361.68  POUT= 66329.    
      COLD: TIN=  354.46  PIN=0.10234E+06   TOUT=  358.46  POUT=0.10234E+06
                              DUTY=0.42396E+07

      CONVERGENCE BLOCK $OLVER01  METHOD: WEGSTEIN                                TIME =      0.67
      ITER  14 For Tear Streams: VF        FC

      --FLASH TEAR STREAM VF      
      NO. TEMP ITER =    4     TEMP =  354.299    
      KODE = 1  NTRIAL =   1  T = 354.2993  P =  47622.8      V =  1.00000      Q =  0.00000    

      --FLASH TEAR STREAM FC      
      NO. TEMP ITER =    4     TEMP =  358.236    
      KODE = 1  NTRIAL =   2  T = 358.2364  P =  102338.      V =  0.00000      Q =  0.00000    

  LOOP $OLVER01 ITER   14:   4 VARS NOT CONVERGED, MAX ERR/TOL      1.6931        TIME =      0.67

      UOS BLOCK CRYST    MODEL: CRYSTALLIZER                                      TIME =      0.67

      SPEC = PV    TEMP =   375.68      PRES =  0.10234E+06  DUTY =  0.53968E+09
      CRYSTAL PROD RATE =   37.911      RECYCLED FLOW RATE =   0.0000    
      VENT FLOW =    245.50      MAGMA DEN =   1950.5      RES TIME =   0.0000    

      UOS BLOCK FILTER   MODEL: FILTER                                            TIME =      0.69

  *   WARNING WHILE EXECUTING UNIT OPERATIONS BLOCK: "FILTER" (MODEL: "FILTER") 
                                                               (SOLSEP.19)      
      SOLID LOAD OF FLUID PRODUCT TOO SMALL FOR GIVEN FLOW SPLIT OF SOLID       
      PHASE. CALCULATING WITH MINIMUM SOLID LOAD OF FLUID PRODUCT (2.1 KG/KG).  

      UOS BLOCK B5       MODEL: MIXER                                             TIME =      0.69
      KODE = 1   NO. TEMP ITER =    3     TEMP =  361.753    
      KPHASE =    1 KODE =    1 T =  361.753     P =  66328.9     Q =  0.00000    

      UOS BLOCK HEX2     MODEL: HEATER                                            TIME =      0.69
      KODE = 1  NTRIAL =   1  T = 361.6781  P =  66328.9      V = 0.334065      Q =  0.00000    

      UOS BLOCK HEX1     MODEL: HEATX                                             TIME =      0.69
      SPECIFICATION: EXCHANGER DUTY       0.71445E+08
      FLOW TYPE:     COUNTERCURRENT  
      HOT:  TIN=  361.68  PIN= 66329.       TOUT=  361.68  POUT= 66329.    
      COLD: TIN=  325.66  PIN=0.10132E+06   TOUT=  349.68  POUT=0.10132E+06
                              DUTY=0.71445E+08

      UOS BLOCK FD       MODEL: FLASH2                                            TIME =      0.69
      KODE = 1  NTRIAL =   1  T = 354.2993  P =  47622.8      V = 0.642911      Q =  0.00000    

      UOS BLOCK MIX2     MODEL: MIXER                                             TIME =      0.69
      NO. TEMP ITER =    4     TEMP =  354.459    
      KODE = 1  NTRIAL =   2  T = 354.4594  P =  50835.1      V =  0.00000      Q =  0.00000    

      UOS BLOCK P1       MODEL: PUMP                                              TIME =      0.69
      VOL-FLOW   =  0.2770     , DELTA P    =  0.5150E+05 , PUMP EFF   =  0.8545    
      FLUID PWR  =  0.1427E+05 , BRAKE PWR  =  0.1669E+05 , ELEC PWR   =  0.1669E+05

      UOS BLOCK HEX3     MODEL: HEATX                                             TIME =      0.69
      SPECIFICATION: COLD TEMP CHANGE      4.0000    
      FLOW TYPE:     COUNTERCURRENT  
      HOT:  TIN=  361.68  PIN= 66329.       TOUT=  361.68  POUT= 66329.    
      COLD: TIN=  354.47  PIN=0.10234E+06   TOUT=  358.47  POUT=0.10234E+06
                              DUTY=0.42400E+07

      CONVERGENCE BLOCK $OLVER01  METHOD: WEGSTEIN                                TIME =      0.69
      ITER  15 For Tear Streams: VF        FC

      --FLASH TEAR STREAM VF      
      NO. TEMP ITER =    4     TEMP =  354.299    
      KODE = 1  NTRIAL =   1  T = 354.2993  P =  47622.8      V =  1.00000      Q =  0.00000    

      --FLASH TEAR STREAM FC      
      NO. TEMP ITER =    4     TEMP =  358.511    
      KODE = 1  NTRIAL =   2  T = 358.5110  P =  102338.      V =  0.00000      Q =  0.00000    

  LOOP $OLVER01 ITER   15:   3 VARS NOT CONVERGED, MAX ERR/TOL      7.2565        TIME =      0.69

      UOS BLOCK CRYST    MODEL: CRYSTALLIZER                                      TIME =      0.69

      SPEC = PV    TEMP =   375.68      PRES =  0.10234E+06  DUTY =  0.53943E+09
      CRYSTAL PROD RATE =   37.878      RECYCLED FLOW RATE =   0.0000    
      VENT FLOW =    245.50      MAGMA DEN =   1947.0      RES TIME =   0.0000    

      UOS BLOCK FILTER   MODEL: FILTER                                            TIME =      0.71

  *   WARNING WHILE EXECUTING UNIT OPERATIONS BLOCK: "FILTER" (MODEL: "FILTER") 
                                                               (SOLSEP.19)      
      SOLID LOAD OF FLUID PRODUCT TOO SMALL FOR GIVEN FLOW SPLIT OF SOLID       
      PHASE. CALCULATING WITH MINIMUM SOLID LOAD OF FLUID PRODUCT (2.06         
      KG/KG).                                                                   

      UOS BLOCK B5       MODEL: MIXER                                             TIME =      0.71
      KODE = 1   NO. TEMP ITER =    3     TEMP =  361.753    
      KPHASE =    1 KODE =    1 T =  361.753     P =  66328.9     Q =  0.00000    

      UOS BLOCK HEX2     MODEL: HEATER                                            TIME =      0.71
      KODE = 1  NTRIAL =   1  T = 361.6781  P =  66328.9      V = 0.334065      Q =  0.00000    

      UOS BLOCK HEX1     MODEL: HEATX                                             TIME =      0.71
      SPECIFICATION: EXCHANGER DUTY       0.71445E+08
      FLOW TYPE:     COUNTERCURRENT  
      HOT:  TIN=  361.68  PIN= 66329.       TOUT=  361.68  POUT= 66329.    
      COLD: TIN=  325.66  PIN=0.10132E+06   TOUT=  349.68  POUT=0.10132E+06
                              DUTY=0.71445E+08

      UOS BLOCK FD       MODEL: FLASH2                                            TIME =      0.71
      KODE = 1  NTRIAL =   1  T = 354.2993  P =  47622.8      V = 0.642911      Q =  0.00000    

      UOS BLOCK MIX2     MODEL: MIXER                                             TIME =      0.71
      NO. TEMP ITER =    4     TEMP =  354.461    
      KODE = 1  NTRIAL =   2  T = 354.4614  P =  50835.1      V =  0.00000      Q =  0.00000    

      UOS BLOCK P1       MODEL: PUMP                                              TIME =      0.71
      VOL-FLOW   =  0.2770     , DELTA P    =  0.5150E+05 , PUMP EFF   =  0.8545    
      FLUID PWR  =  0.1427E+05 , BRAKE PWR  =  0.1670E+05 , ELEC PWR   =  0.1670E+05

      UOS BLOCK HEX3     MODEL: HEATX                                             TIME =      0.71
      SPECIFICATION: COLD TEMP CHANGE      4.0000    
      FLOW TYPE:     COUNTERCURRENT  
      HOT:  TIN=  361.68  PIN= 66329.       TOUT=  361.68  POUT= 66329.    
      COLD: TIN=  354.47  PIN=0.10234E+06   TOUT=  358.47  POUT=0.10234E+06
                              DUTY=0.42405E+07

      CONVERGENCE BLOCK $OLVER01  METHOD: WEGSTEIN                                TIME =      0.71
      ITER  16 For Tear Streams: VF        FC

      --FLASH TEAR STREAM VF      
      NO. TEMP ITER =    4     TEMP =  354.299    
      KODE = 1  NTRIAL =   1  T = 354.2993  P =  47622.8      V =  1.00000      Q =  0.00000    

      --FLASH TEAR STREAM FC      
      NO. TEMP ITER =    4     TEMP =  358.468    
      KODE = 1  NTRIAL =   2  T = 358.4680  P =  102338.      V =  0.00000      Q =  0.00000    

  LOOP $OLVER01 ITER   16:   4 VARS NOT CONVERGED, MAX ERR/TOL     -8.4892        TIME =      0.71

      UOS BLOCK CRYST    MODEL: CRYSTALLIZER                                      TIME =      0.71

      SPEC = PV    TEMP =   375.68      PRES =  0.10234E+06  DUTY =  0.53947E+09
      CRYSTAL PROD RATE =   37.881      RECYCLED FLOW RATE =   0.0000    
      VENT FLOW =    245.50      MAGMA DEN =   1943.7      RES TIME =   0.0000    

      UOS BLOCK FILTER   MODEL: FILTER                                            TIME =      0.73

  *   WARNING WHILE EXECUTING UNIT OPERATIONS BLOCK: "FILTER" (MODEL: "FILTER") 
                                                               (SOLSEP.19)      
      SOLID LOAD OF FLUID PRODUCT TOO SMALL FOR GIVEN FLOW SPLIT OF SOLID       
      PHASE. CALCULATING WITH MINIMUM SOLID LOAD OF FLUID PRODUCT (2.02         
      KG/KG).                                                                   

      UOS BLOCK B5       MODEL: MIXER                                             TIME =      0.73
      KODE = 1   NO. TEMP ITER =    3     TEMP =  361.753    
      KPHASE =    1 KODE =    1 T =  361.753     P =  66328.9     Q =  0.00000    

      UOS BLOCK HEX2     MODEL: HEATER                                            TIME =      0.73
      KODE = 1  NTRIAL =   1  T = 361.6781  P =  66328.9      V = 0.334065      Q =  0.00000    

      UOS BLOCK HEX1     MODEL: HEATX                                             TIME =      0.73
      SPECIFICATION: EXCHANGER DUTY       0.71445E+08
      FLOW TYPE:     COUNTERCURRENT  
      HOT:  TIN=  361.68  PIN= 66329.       TOUT=  361.68  POUT= 66329.    
      COLD: TIN=  325.66  PIN=0.10132E+06   TOUT=  349.68  POUT=0.10132E+06
                              DUTY=0.71445E+08

      UOS BLOCK FD       MODEL: FLASH2                                            TIME =      0.73
      KODE = 1  NTRIAL =   1  T = 354.2993  P =  47622.8      V = 0.642911      Q =  0.00000    

      UOS BLOCK MIX2     MODEL: MIXER                                             TIME =      0.73
      NO. TEMP ITER =    4     TEMP =  354.463    
      KODE = 1  NTRIAL =   2  T = 354.4633  P =  50835.1      V =  0.00000      Q =  0.00000    

      UOS BLOCK P1       MODEL: PUMP                                              TIME =      0.73
      VOL-FLOW   =  0.2771     , DELTA P    =  0.5150E+05 , PUMP EFF   =  0.8545    
      FLUID PWR  =  0.1427E+05 , BRAKE PWR  =  0.1670E+05 , ELEC PWR   =  0.1670E+05

      UOS BLOCK HEX3     MODEL: HEATX                                             TIME =      0.73
      SPECIFICATION: COLD TEMP CHANGE      4.0000    
      FLOW TYPE:     COUNTERCURRENT  
      HOT:  TIN=  361.68  PIN= 66329.       TOUT=  361.68  POUT= 66329.    
      COLD: TIN=  354.47  PIN=0.10234E+06   TOUT=  358.47  POUT=0.10234E+06
                              DUTY=0.42410E+07

      CONVERGENCE BLOCK $OLVER01  METHOD: WEGSTEIN                                TIME =      0.73
      ITER  17 For Tear Streams: VF        FC

      --FLASH TEAR STREAM VF      
      NO. TEMP ITER =    4     TEMP =  354.299    
      KODE = 1  NTRIAL =   1  T = 354.2993  P =  47622.8      V =  1.00000      Q =  0.00000    

      --FLASH TEAR STREAM FC      
      NO. TEMP ITER =    4     TEMP =  358.407    
      KODE = 1  NTRIAL =   2  T = 358.4067  P =  102338.      V =  0.00000      Q =  0.00000    

  LOOP $OLVER01 ITER   17:   3 VARS NOT CONVERGED, MAX ERR/TOL      2.0203        TIME =      0.73

      UOS BLOCK CRYST    MODEL: CRYSTALLIZER                                      TIME =      0.73

      SPEC = PV    TEMP =   375.68      PRES =  0.10234E+06  DUTY =  0.53953E+09
      CRYSTAL PROD RATE =   37.889      RECYCLED FLOW RATE =   0.0000    
      VENT FLOW =    245.50      MAGMA DEN =   1940.4      RES TIME =   0.0000    

      UOS BLOCK FILTER   MODEL: FILTER                                            TIME =      0.75

  *   WARNING WHILE EXECUTING UNIT OPERATIONS BLOCK: "FILTER" (MODEL: "FILTER") 
                                                               (SOLSEP.19)      
      SOLID LOAD OF FLUID PRODUCT TOO SMALL FOR GIVEN FLOW SPLIT OF SOLID       
      PHASE. CALCULATING WITH MINIMUM SOLID LOAD OF FLUID PRODUCT (1.98         
      KG/KG).                                                                   

      UOS BLOCK B5       MODEL: MIXER                                             TIME =      0.75
      KODE = 1   NO. TEMP ITER =    3     TEMP =  361.753    
      KPHASE =    1 KODE =    1 T =  361.753     P =  66328.9     Q =  0.00000    

      UOS BLOCK HEX2     MODEL: HEATER                                            TIME =      0.75
      KODE = 1  NTRIAL =   1  T = 361.6781  P =  66328.9      V = 0.334065      Q =  0.00000    

      UOS BLOCK HEX1     MODEL: HEATX                                             TIME =      0.75
      SPECIFICATION: EXCHANGER DUTY       0.71445E+08
      FLOW TYPE:     COUNTERCURRENT  
      HOT:  TIN=  361.68  PIN= 66329.       TOUT=  361.68  POUT= 66329.    
      COLD: TIN=  325.66  PIN=0.10132E+06   TOUT=  349.68  POUT=0.10132E+06
                              DUTY=0.71445E+08

      UOS BLOCK FD       MODEL: FLASH2                                            TIME =      0.75
      KODE = 1  NTRIAL =   1  T = 354.2993  P =  47622.8      V = 0.642911      Q =  0.00000    

      UOS BLOCK MIX2     MODEL: MIXER                                             TIME =      0.75
      NO. TEMP ITER =    4     TEMP =  354.465    
      KODE = 1  NTRIAL =   2  T = 354.4653  P =  50835.1      V =  0.00000      Q =  0.00000    

      UOS BLOCK P1       MODEL: PUMP                                              TIME =      0.75
      VOL-FLOW   =  0.2771     , DELTA P    =  0.5150E+05 , PUMP EFF   =  0.8545    
      FLUID PWR  =  0.1427E+05 , BRAKE PWR  =  0.1670E+05 , ELEC PWR   =  0.1670E+05

      UOS BLOCK HEX3     MODEL: HEATX                                             TIME =      0.75
      SPECIFICATION: COLD TEMP CHANGE      4.0000    
      FLOW TYPE:     COUNTERCURRENT  
      HOT:  TIN=  361.68  PIN= 66329.       TOUT=  361.68  POUT= 66329.    
      COLD: TIN=  354.47  PIN=0.10234E+06   TOUT=  358.47  POUT=0.10234E+06
                              DUTY=0.42415E+07

      CONVERGENCE BLOCK $OLVER01  METHOD: WEGSTEIN                                TIME =      0.75
      ITER  18 For Tear Streams: VF        FC

      --FLASH TEAR STREAM VF      
      NO. TEMP ITER =    4     TEMP =  354.299    
      KODE = 1  NTRIAL =   1  T = 354.2993  P =  47622.8      V =  1.00000      Q =  0.00000    

      --FLASH TEAR STREAM FC      
      NO. TEMP ITER =    4     TEMP =  358.639    
      KODE = 1  NTRIAL =   2  T = 358.6386  P =  102338.      V =  0.00000      Q =  0.00000    

  LOOP $OLVER01 ITER   18:   3 VARS NOT CONVERGED, MAX ERR/TOL      1.9956        TIME =      0.75

      UOS BLOCK CRYST    MODEL: CRYSTALLIZER                                      TIME =      0.75

      SPEC = PV    TEMP =   375.68      PRES =  0.10234E+06  DUTY =  0.53934E+09
      CRYSTAL PROD RATE =   37.845      RECYCLED FLOW RATE =   0.0000    
      VENT FLOW =    245.50      MAGMA DEN =   1920.7      RES TIME =   0.0000    

      UOS BLOCK FILTER   MODEL: FILTER                                            TIME =      0.77

  *   WARNING WHILE EXECUTING UNIT OPERATIONS BLOCK: "FILTER" (MODEL: "FILTER") 
                                                               (SOLSEP.19)      
      SOLID LOAD OF FLUID PRODUCT TOO SMALL FOR GIVEN FLOW SPLIT OF SOLID       
      PHASE. CALCULATING WITH MINIMUM SOLID LOAD OF FLUID PRODUCT (1.79         
      KG/KG).                                                                   

      UOS BLOCK B5       MODEL: MIXER                                             TIME =      0.77
      KODE = 1   NO. TEMP ITER =    3     TEMP =  361.753    
      KPHASE =    1 KODE =    1 T =  361.753     P =  66328.9     Q =  0.00000    

      UOS BLOCK HEX2     MODEL: HEATER                                            TIME =      0.77
      KODE = 1  NTRIAL =   1  T = 361.6781  P =  66328.9      V = 0.334065      Q =  0.00000    

      UOS BLOCK HEX1     MODEL: HEATX                                             TIME =      0.77
      SPECIFICATION: EXCHANGER DUTY       0.71445E+08
      FLOW TYPE:     COUNTERCURRENT  
      HOT:  TIN=  361.68  PIN= 66329.       TOUT=  361.68  POUT= 66329.    
      COLD: TIN=  325.66  PIN=0.10132E+06   TOUT=  349.68  POUT=0.10132E+06
                              DUTY=0.71445E+08

      UOS BLOCK FD       MODEL: FLASH2                                            TIME =      0.77
      KODE = 1  NTRIAL =   1  T = 354.2993  P =  47622.8      V = 0.642911      Q =  0.00000    

[...]

      UOS BLOCK FILTER   MODEL: FILTER                                            TIME =      1.47

      UOS BLOCK B5       MODEL: MIXER                                             TIME =      1.47
      KODE = 1   NO. TEMP ITER =    3     TEMP =  361.753    
      KPHASE =    1 KODE =    1 T =  361.753     P =  66328.9     Q =  0.00000    

      UOS BLOCK HEX2     MODEL: HEATER                                            TIME =      1.47
      KODE = 1  NTRIAL =   1  T = 361.6781  P =  66328.9      V = 0.334065      Q =  0.00000    

      UOS BLOCK HEX1     MODEL: HEATX                                             TIME =      1.47
      SPECIFICATION: EXCHANGER DUTY       0.71445E+08
      FLOW TYPE:     COUNTERCURRENT  
      HOT:  TIN=  361.68  PIN= 66329.       TOUT=  361.68  POUT= 66329.    
      COLD: TIN=  325.66  PIN=0.10132E+06   TOUT=  349.68  POUT=0.10132E+06
                              DUTY=0.71445E+08

      UOS BLOCK FD       MODEL: FLASH2                                            TIME =      1.47
      KODE = 1  NTRIAL =   1  T = 354.2993  P =  47622.8      V = 0.642911      Q =  0.00000    

      UOS BLOCK MIX2     MODEL: MIXER                                             TIME =      1.47
      NO. TEMP ITER =    4     TEMP =  354.783    
      KODE = 1  NTRIAL =   2  T = 354.7825  P =  50835.1      V =  0.00000      Q =  0.00000    

      UOS BLOCK P1       MODEL: PUMP                                              TIME =      1.47
      VOL-FLOW   =  0.2825     , DELTA P    =  0.5150E+05 , PUMP EFF   =  0.8553    
      FLUID PWR  =  0.1455E+05 , BRAKE PWR  =  0.1701E+05 , ELEC PWR   =  0.1701E+05

      UOS BLOCK HEX3     MODEL: HEATX                                             TIME =      1.47
      SPECIFICATION: COLD TEMP CHANGE      4.0000    
      FLOW TYPE:     COUNTERCURRENT  
      HOT:  TIN=  361.68  PIN= 66329.       TOUT=  361.68  POUT= 66329.    
      COLD: TIN=  354.79  PIN=0.10234E+06   TOUT=  358.79  POUT=0.10234E+06
                              DUTY=0.43197E+07

      CONVERGENCE BLOCK $OLVER01  METHOD: WEGSTEIN                                TIME =      1.47
      ITER  88 For Tear Streams: VF        FC

  LOOP $OLVER01 ITER   88:     *** CONVERGED *** , MAX ERR/TOL     0.92694E-01    TIME =      1.47

      UOS BLOCK HEX4     MODEL: HEATER                                            TIME =      1.47
      KODE = 2  NTRIAL =   1  T = 326.0000  P =  66328.9      V =  0.00000      Q =-5.711433E+08

      UOS BLOCK P2       MODEL: PUMP                                              TIME =      1.47
      VOL-FLOW   =  0.7160     , DELTA P    =  0.3500E+05 , PUMP EFF   =  0.8594    
      FLUID PWR  =  0.2506E+05 , BRAKE PWR  =  0.2916E+05 , ELEC PWR   =  0.2916E+05

      UTILITY BLOCK ELECTRIC MODEL: GENERAL                                       TIME =      1.47

      GENERATING RESULTS FOR UOS BLOCK P1       MODEL: PUMP                       TIME =      1.47
      KODE = 5  NTRIAL =   3  T = 354.7825  P =  48509.8      V =  0.00000      Q = -51.8946    
      VOL-FLOW   =  0.2825     , DELTA P    =  0.5150E+05 , PUMP EFF   =  0.8553    
      FLUID PWR  =  0.1455E+05 , BRAKE PWR  =  0.1701E+05 , ELEC PWR   =  0.1701E+05
      NPSH AVAIL =   2.273    

      GENERATING RESULTS FOR UOS BLOCK HEX1     MODEL: HEATX                      TIME =      1.47
      SPECIFICATION: EXCHANGER DUTY       0.71445E+08
      FLOW TYPE:     COUNTERCURRENT  
      HOT:  TIN=  361.68  PIN= 66329.       TOUT=  361.68  POUT= 66329.    
      COLD: TIN=  325.66  PIN=0.10132E+06   TOUT=  349.68  POUT=0.10132E+06
      AREA= 3846.6           DUTY=0.71445E+08       FT=1.00000

      BEGIN HEATX TQ-CURVE CALCULATIONS FOR BLOCK HEX1    

      BEGIN COLD-TQCURVE INLET   
      NO. TEMP ITER =    4     TEMP =  349.680    
      KODE = 1  NTRIAL =   2  T = 349.6797  P =  101325.      V =  0.00000      Q =  0.00000    
      NO. TEMP ITER =    4     TEMP =  348.538    
      KODE = 1  NTRIAL =   2  T = 348.5376  P =  101325.      V =  0.00000      Q =  0.00000    
      NO. TEMP ITER =    4     TEMP =  347.395    
      KODE = 1  NTRIAL =   2  T = 347.3954  P =  101325.      V =  0.00000      Q =  0.00000    
      NO. TEMP ITER =    4     TEMP =  346.253    
      KODE = 1  NTRIAL =   2  T = 346.2529  P =  101325.      V =  0.00000      Q =  0.00000    
      NO. TEMP ITER =    4     TEMP =  345.110    
      KODE = 1  NTRIAL =   2  T = 345.1102  P =  101325.      V =  0.00000      Q =  0.00000    
      NO. TEMP ITER =    4     TEMP =  343.967    
      KODE = 1  NTRIAL =   2  T = 343.9674  P =  101325.      V =  0.00000      Q =  0.00000    
      NO. TEMP ITER =    4     TEMP =  342.824    
      KODE = 1  NTRIAL =   2  T = 342.8243  P =  101325.      V =  0.00000      Q =  0.00000    
      NO. TEMP ITER =    4     TEMP =  341.681    
      KODE = 1  NTRIAL =   2  T = 341.6811  P =  101325.      V =  0.00000      Q =  0.00000    
      NO. TEMP ITER =    4     TEMP =  340.538    
      KODE = 1  NTRIAL =   2  T = 340.5377  P =  101325.      V =  0.00000      Q =  0.00000    
      NO. TEMP ITER =    4     TEMP =  339.394    
      KODE = 1  NTRIAL =   2  T = 339.3941  P =  101325.      V =  0.00000      Q =  0.00000    
      NO. TEMP ITER =    4     TEMP =  338.250    
      KODE = 1  NTRIAL =   2  T = 338.2504  P =  101325.      V =  0.00000      Q =  0.00000    
      NO. TEMP ITER =    4     TEMP =  337.107    
      KODE = 1  NTRIAL =   2  T = 337.1065  P =  101325.      V =  0.00000      Q =  0.00000    
      NO. TEMP ITER =    4     TEMP =  335.962    
      KODE = 1  NTRIAL =   2  T = 335.9625  P =  101325.      V =  0.00000      Q =  0.00000    
      NO. TEMP ITER =    4     TEMP =  334.818    
      KODE = 1  NTRIAL =   2  T = 334.8183  P =  101325.      V =  0.00000      Q =  0.00000    
      NO. TEMP ITER =    4     TEMP =  333.674    
      KODE = 1  NTRIAL =   2  T = 333.6740  P =  101325.      V =  0.00000      Q =  0.00000    
      NO. TEMP ITER =    5     TEMP =  332.530    
      KODE = 1  NTRIAL =   2  T = 332.5295  P =  101325.      V =  0.00000      Q =  0.00000    
      NO. TEMP ITER =    5     TEMP =  331.385    
      KODE = 1  NTRIAL =   2  T = 331.3849  P =  101325.      V =  0.00000      Q =  0.00000    
      NO. TEMP ITER =    5     TEMP =  330.240    
      KODE = 1  NTRIAL =   2  T = 330.2402  P =  101325.      V =  0.00000      Q =  0.00000    
      NO. TEMP ITER =    5     TEMP =  329.095    
      KODE = 1  NTRIAL =   2  T = 329.0954  P =  101325.      V =  0.00000      Q =  0.00000    
      NO. TEMP ITER =    5     TEMP =  327.950    
      KODE = 1  NTRIAL =   2  T = 327.9504  P =  101325.      V =  0.00000      Q =  0.00000    
      NO. TEMP ITER =    5     TEMP =  326.805    
      KODE = 1  NTRIAL =   2  T = 326.8054  P =  101325.      V =  0.00000      Q =  0.00000    
      NO. TEMP ITER =    5     TEMP =  325.660    
      KODE = 1  NTRIAL =   2  T = 325.6602  P =  101325.      V =  0.00000      Q =  0.00000    

      BEGIN HOT-TQCURVE  INLET   
      KODE = 1  NTRIAL =   3  T = 361.6781  P =  66328.9      V = 0.334065      Q =  0.00000    
      KODE = 1  NTRIAL =   1  T = 361.6781  P =  66328.9      V = 0.331966      Q =  0.00000    
      KODE = 1  NTRIAL =   1  T = 361.6781  P =  66328.9      V = 0.329867      Q =  0.00000    
      KODE = 1  NTRIAL =   1  T = 361.6781  P =  66328.9      V = 0.327768      Q =  0.00000    
      KODE = 1  NTRIAL =   1  T = 361.6781  P =  66328.9      V = 0.325669      Q =  0.00000    
      KODE = 1  NTRIAL =   1  T = 361.6781  P =  66328.9      V = 0.323570      Q =  0.00000    
      KODE = 1  NTRIAL =   1  T = 361.6781  P =  66328.9      V = 0.321471      Q =  0.00000    
      KODE = 1  NTRIAL =   1  T = 361.6781  P =  66328.9      V = 0.319372      Q =  0.00000    
      KODE = 1  NTRIAL =   1  T = 361.6781  P =  66328.9      V = 0.317273      Q =  0.00000    
      KODE = 1  NTRIAL =   1  T = 361.6781  P =  66328.9      V = 0.315174      Q =  0.00000    
      KODE = 1  NTRIAL =   1  T = 361.6781  P =  66328.9      V = 0.313074      Q =  0.00000    
      KODE = 1  NTRIAL =   1  T = 361.6781  P =  66328.9      V = 0.310975      Q =  0.00000    
      KODE = 1  NTRIAL =   1  T = 361.6781  P =  66328.9      V = 0.308876      Q =  0.00000    
      KODE = 1  NTRIAL =   1  T = 361.6781  P =  66328.9      V = 0.306777      Q =  0.00000    
      KODE = 1  NTRIAL =   1  T = 361.6781  P =  66328.9      V = 0.304678      Q =  0.00000    
      KODE = 1  NTRIAL =   1  T = 361.6781  P =  66328.9      V = 0.302579      Q =  0.00000    
      KODE = 1  NTRIAL =   1  T = 361.6781  P =  66328.9      V = 0.300480      Q =  0.00000    
      KODE = 1  NTRIAL =   1  T = 361.6781  P =  66328.9      V = 0.298381      Q =  0.00000    
      KODE = 1  NTRIAL =   1  T = 361.6781  P =  66328.9      V = 0.296282      Q =  0.00000    
      KODE = 1  NTRIAL =   1  T = 361.6781  P =  66328.9      V = 0.294183      Q =  0.00000    
      KODE = 1  NTRIAL =   1  T = 361.6781  P =  66328.9      V = 0.292084      Q =  0.00000    
      KODE = 1  NTRIAL =   1  T = 361.6781  P =  66328.9      V = 0.289985      Q =  0.00000    

      BEGIN COLD-TQCURVE INLET   

      BEGIN HOT-TQCURVE  INLET   
      END HEATX TQ-CURVE CALCULATIONS FOR BLOCK HEX1    

      GENERATING RESULTS FOR UOS BLOCK HEX3     MODEL: HEATX                      TIME =      1.48
      SPECIFICATION: COLD TEMP CHANGE      4.0000    
      FLOW TYPE:     COUNTERCURRENT  
      HOT:  TIN=  361.68  PIN= 66329.       TOUT=  361.68  POUT= 66329.    
      COLD: TIN=  354.79  PIN=0.10234E+06   TOUT=  358.79  POUT=0.10234E+06
      AREA= 1104.0           DUTY=0.43197E+07       FT=1.00000

      BEGIN HEATX TQ-CURVE CALCULATIONS FOR BLOCK HEX3    

      BEGIN COLD-TQCURVE INLET   
      NO. TEMP ITER =    4     TEMP =  358.789    
      KODE = 1  NTRIAL =   2  T = 358.7888  P =  102338.      V =  0.00000      Q =  0.00000    
      NO. TEMP ITER =    4     TEMP =  358.598    
      KODE = 1  NTRIAL =   2  T = 358.5984  P =  102338.      V =  0.00000      Q =  0.00000    
      NO. TEMP ITER =    4     TEMP =  358.408    
      KODE = 1  NTRIAL =   2  T = 358.4080  P =  102338.      V =  0.00000      Q =  0.00000    
      NO. TEMP ITER =    4     TEMP =  358.218    
      KODE = 1  NTRIAL =   2  T = 358.2176  P =  102338.      V =  0.00000      Q =  0.00000    
      NO. TEMP ITER =    4     TEMP =  358.027    
      KODE = 1  NTRIAL =   2  T = 358.0272  P =  102338.      V =  0.00000      Q =  0.00000    
      NO. TEMP ITER =    4     TEMP =  357.837    
      KODE = 1  NTRIAL =   2  T = 357.8367  P =  102338.      V =  0.00000      Q =  0.00000    
      NO. TEMP ITER =    4     TEMP =  357.646    
      KODE = 1  NTRIAL =   2  T = 357.6463  P =  102338.      V =  0.00000      Q =  0.00000    
      NO. TEMP ITER =    4     TEMP =  357.456    
      KODE = 1  NTRIAL =   2  T = 357.4558  P =  102338.      V =  0.00000      Q =  0.00000    
      NO. TEMP ITER =    4     TEMP =  357.265    
      KODE = 1  NTRIAL =   2  T = 357.2654  P =  102338.      V =  0.00000      Q =  0.00000    
      NO. TEMP ITER =    4     TEMP =  357.075    
      KODE = 1  NTRIAL =   2  T = 357.0749  P =  102338.      V =  0.00000      Q =  0.00000    
      NO. TEMP ITER =    4     TEMP =  356.884    
      KODE = 1  NTRIAL =   2  T = 356.8845  P =  102338.      V =  0.00000      Q =  0.00000    
      NO. TEMP ITER =    4     TEMP =  356.694    
      KODE = 1  NTRIAL =   2  T = 356.6940  P =  102338.      V =  0.00000      Q =  0.00000    
      NO. TEMP ITER =    4     TEMP =  356.503    
      KODE = 1  NTRIAL =   2  T = 356.5035  P =  102338.      V =  0.00000      Q =  0.00000    
      NO. TEMP ITER =    4     TEMP =  356.313    
      KODE = 1  NTRIAL =   2  T = 356.3130  P =  102338.      V =  0.00000      Q =  0.00000    
      NO. TEMP ITER =    4     TEMP =  356.123    
      KODE = 1  NTRIAL =   2  T = 356.1225  P =  102338.      V =  0.00000      Q =  0.00000    
      NO. TEMP ITER =    4     TEMP =  355.932    
      KODE = 1  NTRIAL =   2  T = 355.9320  P =  102338.      V =  0.00000      Q =  0.00000    
      NO. TEMP ITER =    4     TEMP =  355.741    
      KODE = 1  NTRIAL =   2  T = 355.7415  P =  102338.      V =  0.00000      Q =  0.00000    
      NO. TEMP ITER =    4     TEMP =  355.551    
      KODE = 1  NTRIAL =   2  T = 355.5510  P =  102338.      V =  0.00000      Q =  0.00000    
      NO. TEMP ITER =    4     TEMP =  355.360    
      KODE = 1  NTRIAL =   2  T = 355.3604  P =  102338.      V =  0.00000      Q =  0.00000    
      NO. TEMP ITER =    4     TEMP =  355.170    
      KODE = 1  NTRIAL =   2  T = 355.1699  P =  102338.      V =  0.00000      Q =  0.00000    
      NO. TEMP ITER =    4     TEMP =  354.979    
      KODE = 1  NTRIAL =   2  T = 354.9794  P =  102338.      V =  0.00000      Q =  0.00000    
      NO. TEMP ITER =    4     TEMP =  354.789    
      KODE = 1  NTRIAL =   2  T = 354.7888  P =  102338.      V =  0.00000      Q =  0.00000    

      BEGIN HOT-TQCURVE  INLET   
      KODE = 1  NTRIAL =   3  T = 361.6781  P =  66328.9      V = 0.289985      Q =  0.00000    
      KODE = 1  NTRIAL =   1  T = 361.6781  P =  66328.9      V = 0.289858      Q =  0.00000    
      KODE = 1  NTRIAL =   1  T = 361.6781  P =  66328.9      V = 0.289731      Q =  0.00000    
      KODE = 1  NTRIAL =   1  T = 361.6781  P =  66328.9      V = 0.289604      Q =  0.00000    
      KODE = 1  NTRIAL =   1  T = 361.6781  P =  66328.9      V = 0.289477      Q =  0.00000    
      KODE = 1  NTRIAL =   1  T = 361.6781  P =  66328.9      V = 0.289350      Q =  0.00000    
      KODE = 1  NTRIAL =   1  T = 361.6781  P =  66328.9      V = 0.289223      Q =  0.00000    
      KODE = 1  NTRIAL =   1  T = 361.6781  P =  66328.9      V = 0.289096      Q =  0.00000    
      KODE = 1  NTRIAL =   1  T = 361.6781  P =  66328.9      V = 0.288969      Q =  0.00000    
      KODE = 1  NTRIAL =   1  T = 361.6781  P =  66328.9      V = 0.288842      Q =  0.00000    
      KODE = 1  NTRIAL =   1  T = 361.6781  P =  66328.9      V = 0.288715      Q =  0.00000    
      KODE = 1  NTRIAL =   1  T = 361.6781  P =  66328.9      V = 0.288589      Q =  0.00000    
      KODE = 1  NTRIAL =   1  T = 361.6781  P =  66328.9      V = 0.288462      Q =  0.00000    
      KODE = 1  NTRIAL =   1  T = 361.6781  P =  66328.9      V = 0.288335      Q =  0.00000    
      KODE = 1  NTRIAL =   1  T = 361.6781  P =  66328.9      V = 0.288208      Q =  0.00000    
      KODE = 1  NTRIAL =   1  T = 361.6781  P =  66328.9      V = 0.288081      Q =  0.00000    
      KODE = 1  NTRIAL =   1  T = 361.6781  P =  66328.9      V = 0.287954      Q =  0.00000    
      KODE = 1  NTRIAL =   1  T = 361.6781  P =  66328.9      V = 0.287827      Q =  0.00000    
      KODE = 1  NTRIAL =   1  T = 361.6781  P =  66328.9      V = 0.287700      Q =  0.00000    
      KODE = 1  NTRIAL =   1  T = 361.6781  P =  66328.9      V = 0.287573      Q =  0.00000    
      KODE = 1  NTRIAL =   1  T = 361.6781  P =  66328.9      V = 0.287446      Q =  0.00000    
      KODE = 1  NTRIAL =   1  T = 361.6781  P =  66328.9      V = 0.287319      Q =  0.00000    

      BEGIN COLD-TQCURVE INLET   

      BEGIN HOT-TQCURVE  INLET   
      END HEATX TQ-CURVE CALCULATIONS FOR BLOCK HEX3    

      GENERATING RESULTS FOR UOS BLOCK HEX4     MODEL: HEATER                     TIME =      1.48

      GENERATING RESULTS FOR UOS BLOCK P2       MODEL: PUMP                       TIME =      1.48
      KODE = 5  NTRIAL =   2  T = 326.0000  P =  14239.6      V =  0.00000      Q = -31430.3    
      VOL-FLOW   =  0.7160     , DELTA P    =  0.3500E+05 , PUMP EFF   =  0.8594    
      FLUID PWR  =  0.2506E+05 , BRAKE PWR  =  0.2916E+05 , ELEC PWR   =  0.2916E+05
      NPSH AVAIL =   52.79    

      BEGIN HEATX TQ-CURVE REPORT FOR BLOCK HEX1    

      BEGIN COLD-TQCURVE INLET   

      BEGIN HOT-TQCURVE  INLET   
      END HEATX TQ-CURVE REPORT FOR BLOCK HEX1    

 STREAM S7      
        SUBSTREAM MIXED     F =  0.424061542808080      T =   372.000000000000      P =   101325.000000000    
                            H =  -304162958.495159      V =   0.00000000000000      L =  0.847149283267388    
                            ENTROPY =  -4602.84976217695      DENSITY =   1266.55850317550      MW =   26.7989202813725    
                            S =  0.152850716732612    
        WATER     0.331925432205536      NACL(S)   6.481811075695176E-02  NACL      2.731799984559036E-02

 STREAM SALT    
        SUBSTREAM MIXED     F =  0.584916180916631      T =   372.000000000000      P =   101325.000000000    
                            H =  -407148178.928350      V =   0.00000000000000      L =  2.655396028929236E-03
                            ENTROPY =  -1362.87426320951      DENSITY =   2138.78084547342      MW =   58.3432830468576    
                            S =  0.997344603971071    
        WATER     1.435075102395562E-03  NACL(S)   0.583362996812566      NACL      1.181090016669073E-04

      BEGIN HEATX TQ-CURVE REPORT FOR BLOCK HEX3    

      BEGIN COLD-TQCURVE INLET   

      BEGIN HOT-TQCURVE  INLET   
      END HEATX TQ-CURVE REPORT FOR BLOCK HEX3    

 STREAM HEX3HOUT
        SUBSTREAM MIXED     F =   39.2155496145012      T =   361.678098014435      P =   66328.8515900000    
                            H =  -269169365.985801      V =  0.287319351399863      L =  0.712680648600137    
                            ENTROPY =  -6431.00249133699      DENSITY =   1.38863080585765      MW =   18.0152800000000    
        WATER      39.2155496145012      NACL(S)    0.00000000000000      NACL      4.481785343469877E-23

 STREAM FC      
        SUBSTREAM MIXED     F =   14.6363907989428      T =   358.788819722774      P =   102338.250000000    
                            H =  -284689352.204418      V =   0.00000000000000      L =  0.995571441645188    
                            ENTROPY =  -7053.37738954314      DENSITY =   1027.62443371703      MW =   19.8814187002595    
                            S =  4.428558354812040E-03
        WATER      13.9607679000466      NACL(S)   6.481811075695176E-02  NACL      0.610804788139276    

 Report Writer entered                                                            Time =     23.42

      BEGIN HEATX TQ-CURVE REPORT FOR BLOCK HEX1    

      BEGIN COLD-TQCURVE INLET   

      BEGIN HOT-TQCURVE  INLET   
      END HEATX TQ-CURVE REPORT FOR BLOCK HEX1    

      BEGIN HEATX TQ-CURVE REPORT FOR BLOCK HEX3    

      BEGIN COLD-TQCURVE INLET   

      BEGIN HOT-TQCURVE  INLET   
      END HEATX TQ-CURVE REPORT FOR BLOCK HEX3    

 Results generated                                                                Time =     23.43

 Report Writer entered                                                            Time =     23.56

      BEGIN HEATX TQ-CURVE REPORT FOR BLOCK HEX1    

      BEGIN COLD-TQCURVE INLET   

      BEGIN HOT-TQCURVE  INLET   
      END HEATX TQ-CURVE REPORT FOR BLOCK HEX1    

      BEGIN HEATX TQ-CURVE REPORT FOR BLOCK HEX3    

      BEGIN COLD-TQCURVE INLET   

      BEGIN HOT-TQCURVE  INLET   
      END HEATX TQ-CURVE REPORT FOR BLOCK HEX3    

 Results generated                                                                Time =     23.57

RUN SAVED



 *** SUMMARY OF ERRORS ***

                  PHYSICAL
                  PROPERTY  SYSTEM  SIMULATION
 TERMINAL ERRORS      0        0         0
   SEVERE ERRORS      0        0         1
          ERRORS      0        0        11
        WARNINGS      1        0        91
